/*---------------------------------------------------------------------------*\
| =========                 |                                                 |
| \\      /  F ield         | OpenFOAM: The Open Source CFD Toolbox           |
|  \\    /   O peration     | Version:  v2012                                 |
|   \\  /    A nd           | Website:  www.openfoam.com                      |
|    \\/     M anipulation  |                                                 |
\*---------------------------------------------------------------------------*/
Build  : _7bdb509494-20201222 OPENFOAM=2012
Arch   : "LSB;label=32;scalar=64"
Exec   : interFoam -parallel
Date   : Oct 16 2021
Time   : 21:57:16
Host   : DESKTOP-68KA90C
PID    : 3651
I/O    : uncollated
Case   : /mnt/d/OpenFoam/OpenFOAM_ejercicios/Mallas/Flujo_Multifasico-master
nProcs : 2
Hosts  :
(
    (DESKTOP-68KA90C 2)
)
Pstream initialized with:
    floatTransfer      : 0
    nProcsSimpleSum    : 0
    commsType          : nonBlocking
    polling iterations : 0
trapFpe: Floating point exception trapping enabled (FOAM_SIGFPE).
fileModificationChecking : Monitoring run-time modified files using timeStampMaster (fileModificationSkew 5, maxFileModificationPolls 20)
allowSystemOperations : Allowing user-supplied system call operations

// * * * * * * * * * * * * * * * * * * * * * * * * * * * * * * * * * * * * * //
Create time

Create mesh for time = 0


PIMPLE: Operating solver in PISO mode

Reading field p_rgh

Reading field U

Reading/calculating face flux field phi

Reading transportProperties

Selecting incompressible transport model Newtonian
Selecting incompressible transport model Newtonian
Selecting turbulence model type laminar
Selecting laminar stress model Stokes

Reading g

Reading hRef
Calculating field g.h

No MRF models present

No finite volume options present
DICPCG:  Solving for pcorr, Initial residual = 1, Final residual = 0.357262, No Iterations 20
DICPCG:  Solving for pcorr, Initial residual = 0.0875561, Final residual = 0.00217992, No Iterations 20
DICPCG:  Solving for pcorr, Initial residual = 0.0132558, Final residual = 0.000315872, No Iterations 20
DICPCG:  Solving for pcorr, Initial residual = 0.00310383, Final residual = 6.66767e-05, No Iterations 20
time step continuity errors : sum local = 2.20163e-07, global = -4.04797e-08, cumulative = -4.04797e-08
Courant Number mean: 0.00106699 max: 0.158584

Starting time loop

Courant Number mean: 0.00106699 max: 0.158584
Interface Courant Number mean: 0 max: 0
deltaT = 0.00119048
Time = 0.00119048

PIMPLE: iteration 1
smoothSolver:  Solving for alpha.water, Initial residual = 0.000233932, Final residual = 8.80205e-09, No Iterations 1
Phase-1 volume fraction = 0.103966  Min(alpha.water) = 0  Max(alpha.water) = 1.00025
MULES: Correcting alpha.water
Phase-1 volume fraction = 0.103966  Min(alpha.water) = -4.8944e-19  Max(alpha.water) = 1.00024
DICPCG:  Solving for p_rgh, Initial residual = 1, Final residual = 0.0348669, No Iterations 3
DICPCG:  Solving for p_rgh, Initial residual = 0.0817935, Final residual = 0.00398049, No Iterations 6
DICPCG:  Solving for p_rgh, Initial residual = 0.0152228, Final residual = 0.000659819, No Iterations 9
DICPCG:  Solving for p_rgh, Initial residual = 0.00379014, Final residual = 0.000180833, No Iterations 13
time step continuity errors : sum local = 0.000129083, global = -4.1637e-05, cumulative = -4.16775e-05
DICPCG:  Solving for p_rgh, Initial residual = 0.0011463, Final residual = 5.7312e-05, No Iterations 17
DICPCG:  Solving for p_rgh, Initial residual = 0.000366101, Final residual = 1.81701e-05, No Iterations 14
DICPCG:  Solving for p_rgh, Initial residual = 0.000111597, Final residual = 5.47398e-06, No Iterations 19
DICPCG:  Solving for p_rgh, Initial residual = 3.78411e-05, Final residual = 9.08552e-07, No Iterations 20
time step continuity errors : sum local = 6.66443e-07, global = -1.5894e-07, cumulative = -4.18364e-05
ExecutionTime = 1.3 s  ClockTime = 2 s

Courant Number mean: 0.0041124 max: 0.165307
Interface Courant Number mean: 2.80192e-05 max: 0.0522202
deltaT = 0.00143557
Time = 0.00262605

PIMPLE: iteration 1
smoothSolver:  Solving for alpha.water, Initial residual = 0.00193305, Final residual = 1.82803e-09, No Iterations 2
Phase-1 volume fraction = 0.104091  Min(alpha.water) = 0  Max(alpha.water) = 1.00024
MULES: Correcting alpha.water
Phase-1 volume fraction = 0.104091  Min(alpha.water) = -3.89113e-23  Max(alpha.water) = 1.00024
DICPCG:  Solving for p_rgh, Initial residual = 0.00586414, Final residual = 0.000277781, No Iterations 11
DICPCG:  Solving for p_rgh, Initial residual = 0.0015524, Final residual = 6.73763e-05, No Iterations 18
DICPCG:  Solving for p_rgh, Initial residual = 0.000427223, Final residual = 2.06535e-05, No Iterations 15
DICPCG:  Solving for p_rgh, Initial residual = 9.19009e-05, Final residual = 4.59404e-06, No Iterations 19
time step continuity errors : sum local = 3.44711e-06, global = 5.79978e-07, cumulative = -4.12564e-05
DICPCG:  Solving for p_rgh, Initial residual = 0.000321107, Final residual = 1.33977e-05, No Iterations 9
DICPCG:  Solving for p_rgh, Initial residual = 5.22849e-05, Final residual = 2.58604e-06, No Iterations 20
DICPCG:  Solving for p_rgh, Initial residual = 1.1704e-05, Final residual = 5.78533e-07, No Iterations 19
DICPCG:  Solving for p_rgh, Initial residual = 2.34265e-06, Final residual = 1.23522e-07, No Iterations 20
time step continuity errors : sum local = 9.27976e-08, global = 1.75267e-08, cumulative = -4.12389e-05
ExecutionTime = 1.74 s  ClockTime = 2 s

Courant Number mean: 0.00527448 max: 0.36589
Interface Courant Number mean: 0.000493506 max: 0.135994
deltaT = 0.00169193
Time = 0.00431798

PIMPLE: iteration 1
smoothSolver:  Solving for alpha.water, Initial residual = 0.00127561, Final residual = 4.07851e-10, No Iterations 2
Phase-1 volume fraction = 0.104239  Min(alpha.water) = -5.74966e-59  Max(alpha.water) = 1.00024
MULES: Correcting alpha.water
Phase-1 volume fraction = 0.104239  Min(alpha.water) = -3.55057e-18  Max(alpha.water) = 1.00024
DICPCG:  Solving for p_rgh, Initial residual = 0.0056185, Final residual = 0.000229297, No Iterations 2
DICPCG:  Solving for p_rgh, Initial residual = 0.00121762, Final residual = 4.99781e-05, No Iterations 5
DICPCG:  Solving for p_rgh, Initial residual = 0.000251024, Final residual = 1.2219e-05, No Iterations 12
DICPCG:  Solving for p_rgh, Initial residual = 6.24466e-05, Final residual = 2.56918e-06, No Iterations 19
time step continuity errors : sum local = 2.81492e-06, global = -2.27935e-07, cumulative = -4.14669e-05
DICPCG:  Solving for p_rgh, Initial residual = 5.60367e-05, Final residual = 2.78558e-06, No Iterations 9
DICPCG:  Solving for p_rgh, Initial residual = 1.2419e-05, Final residual = 7.07391e-07, No Iterations 20
DICPCG:  Solving for p_rgh, Initial residual = 4.13508e-06, Final residual = 1.89608e-07, No Iterations 9
DICPCG:  Solving for p_rgh, Initial residual = 1.03641e-06, Final residual = 9.72309e-08, No Iterations 10
time step continuity errors : sum local = 1.06564e-07, global = -3.22039e-08, cumulative = -4.14991e-05
ExecutionTime = 2.15 s  ClockTime = 3 s

Courant Number mean: 0.00769463 max: 0.550728
Interface Courant Number mean: 0.000678553 max: 0.177507
deltaT = 0.00198617
Time = 0.00630415

PIMPLE: iteration 1
smoothSolver:  Solving for alpha.water, Initial residual = 0.00147163, Final residual = 3.00221e-09, No Iterations 2
Phase-1 volume fraction = 0.10441  Min(alpha.water) = -5.63603e-59  Max(alpha.water) = 1.00024
MULES: Correcting alpha.water
Phase-1 volume fraction = 0.10441  Min(alpha.water) = -1.63931e-18  Max(alpha.water) = 1.00024
DICPCG:  Solving for p_rgh, Initial residual = 0.0060507, Final residual = 0.000232997, No Iterations 2
DICPCG:  Solving for p_rgh, Initial residual = 0.00125497, Final residual = 5.17363e-05, No Iterations 5
DICPCG:  Solving for p_rgh, Initial residual = 0.000267497, Final residual = 1.30853e-05, No Iterations 8
DICPCG:  Solving for p_rgh, Initial residual = 6.32941e-05, Final residual = 3.29602e-06, No Iterations 20
time step continuity errors : sum local = 4.86346e-06, global = -7.59361e-07, cumulative = -4.22584e-05
DICPCG:  Solving for p_rgh, Initial residual = 8.02705e-05, Final residual = 4.01288e-06, No Iterations 5
DICPCG:  Solving for p_rgh, Initial residual = 1.67469e-05, Final residual = 1.08129e-06, No Iterations 20
DICPCG:  Solving for p_rgh, Initial residual = 6.06292e-06, Final residual = 2.73403e-07, No Iterations 10
DICPCG:  Solving for p_rgh, Initial residual = 1.45515e-06, Final residual = 9.65976e-08, No Iterations 16
time step continuity errors : sum local = 1.42612e-07, global = -3.03117e-08, cumulative = -4.22887e-05
ExecutionTime = 2.56 s  ClockTime = 3 s

Courant Number mean: 0.0110725 max: 0.706217
Interface Courant Number mean: 0.00103851 max: 0.213391
deltaT = 0.00229978
Time = 0.00860393

PIMPLE: iteration 1
smoothSolver:  Solving for alpha.water, Initial residual = 0.0016858, Final residual = 3.85044e-09, No Iterations 2
Phase-1 volume fraction = 0.104607  Min(alpha.water) = -5.43124e-59  Max(alpha.water) = 1.00024
MULES: Correcting alpha.water
Phase-1 volume fraction = 0.104607  Min(alpha.water) = -4.54439e-17  Max(alpha.water) = 1.00024
DICPCG:  Solving for p_rgh, Initial residual = 0.00681155, Final residual = 0.000248509, No Iterations 2
DICPCG:  Solving for p_rgh, Initial residual = 0.00132275, Final residual = 5.98391e-05, No Iterations 4
DICPCG:  Solving for p_rgh, Initial residual = 0.000283736, Final residual = 1.39753e-05, No Iterations 6
DICPCG:  Solving for p_rgh, Initial residual = 7.04227e-05, Final residual = 3.2064e-06, No Iterations 14
time step continuity errors : sum local = 6.37669e-06, global = -1.6207e-06, cumulative = -4.39094e-05
DICPCG:  Solving for p_rgh, Initial residual = 6.43823e-05, Final residual = 3.00329e-06, No Iterations 13
DICPCG:  Solving for p_rgh, Initial residual = 1.5494e-05, Final residual = 7.01331e-07, No Iterations 19
DICPCG:  Solving for p_rgh, Initial residual = 5.1755e-06, Final residual = 2.45809e-07, No Iterations 8
DICPCG:  Solving for p_rgh, Initial residual = 1.04193e-06, Final residual = 9.73303e-08, No Iterations 11
time step continuity errors : sum local = 1.93729e-07, global = -4.50606e-08, cumulative = -4.39545e-05
ExecutionTime = 2.96 s  ClockTime = 4 s

Courant Number mean: 0.0154496 max: 0.843617
Interface Courant Number mean: 0.0016299 max: 0.418613
deltaT = 0.00258725
Time = 0.0111912

PIMPLE: iteration 1
smoothSolver:  Solving for alpha.water, Initial residual = 0.00203913, Final residual = 9.49694e-09, No Iterations 2
Phase-1 volume fraction = 0.104825  Min(alpha.water) = -3.31456e-24  Max(alpha.water) = 1.00024
MULES: Correcting alpha.water
Phase-1 volume fraction = 0.104825  Min(alpha.water) = -4.53752e-16  Max(alpha.water) = 1.00024
DICPCG:  Solving for p_rgh, Initial residual = 0.00825758, Final residual = 0.000295407, No Iterations 2
DICPCG:  Solving for p_rgh, Initial residual = 0.00140806, Final residual = 6.66486e-05, No Iterations 4
DICPCG:  Solving for p_rgh, Initial residual = 0.000302483, Final residual = 1.49637e-05, No Iterations 7
DICPCG:  Solving for p_rgh, Initial residual = 7.19927e-05, Final residual = 3.29981e-06, No Iterations 13
time step continuity errors : sum local = 8.26008e-06, global = -1.87562e-06, cumulative = -4.58301e-05
DICPCG:  Solving for p_rgh, Initial residual = 6.91798e-05, Final residual = 3.29261e-06, No Iterations 10
DICPCG:  Solving for p_rgh, Initial residual = 1.6297e-05, Final residual = 6.89077e-07, No Iterations 19
DICPCG:  Solving for p_rgh, Initial residual = 5.80816e-06, Final residual = 2.84776e-07, No Iterations 11
DICPCG:  Solving for p_rgh, Initial residual = 1.28102e-06, Final residual = 8.68977e-08, No Iterations 14
time step continuity errors : sum local = 2.17742e-07, global = -6.94836e-08, cumulative = -4.58996e-05
ExecutionTime = 3.36 s  ClockTime = 4 s

Courant Number mean: 0.0204377 max: 1.14088
Interface Courant Number mean: 0.00264359 max: 0.446553
deltaT = 0.00228287
Time = 0.0134741

PIMPLE: iteration 1
smoothSolver:  Solving for alpha.water, Initial residual = 0.00195087, Final residual = 7.38231e-09, No Iterations 2
Phase-1 volume fraction = 0.105016  Min(alpha.water) = -1.18762e-27  Max(alpha.water) = 1.00023
MULES: Correcting alpha.water
Phase-1 volume fraction = 0.105016  Min(alpha.water) = -6.59416e-16  Max(alpha.water) = 1.00023
DICPCG:  Solving for p_rgh, Initial residual = 0.00829833, Final residual = 0.000289673, No Iterations 2
DICPCG:  Solving for p_rgh, Initial residual = 0.0012598, Final residual = 5.29674e-05, No Iterations 5
DICPCG:  Solving for p_rgh, Initial residual = 0.000260266, Final residual = 1.16036e-05, No Iterations 8
DICPCG:  Solving for p_rgh, Initial residual = 5.77198e-05, Final residual = 2.83972e-06, No Iterations 11
time step continuity errors : sum local = 5.58893e-06, global = -2.79646e-07, cumulative = -4.61792e-05
DICPCG:  Solving for p_rgh, Initial residual = 5.37242e-05, Final residual = 2.36566e-06, No Iterations 10
DICPCG:  Solving for p_rgh, Initial residual = 1.28305e-05, Final residual = 6.12673e-07, No Iterations 19
DICPCG:  Solving for p_rgh, Initial residual = 4.54515e-06, Final residual = 2.12489e-07, No Iterations 10
DICPCG:  Solving for p_rgh, Initial residual = 1.05262e-06, Final residual = 9.95899e-08, No Iterations 13
time step continuity errors : sum local = 1.96148e-07, global = -4.39609e-08, cumulative = -4.62232e-05
ExecutionTime = 3.76 s  ClockTime = 4 s

Courant Number mean: 0.0202824 max: 0.898525
Interface Courant Number mean: 0.00278302 max: 0.470359
deltaT = 0.002609
Time = 0.0160831

PIMPLE: iteration 1
smoothSolver:  Solving for alpha.water, Initial residual = 0.00236168, Final residual = 2.35839e-10, No Iterations 3
Phase-1 volume fraction = 0.105233  Min(alpha.water) = -1.07829e-27  Max(alpha.water) = 1.00022
MULES: Correcting alpha.water
Phase-1 volume fraction = 0.105233  Min(alpha.water) = -2.39628e-13  Max(alpha.water) = 1.00022
DICPCG:  Solving for p_rgh, Initial residual = 0.00987197, Final residual = 0.000350792, No Iterations 2
DICPCG:  Solving for p_rgh, Initial residual = 0.00140577, Final residual = 6.68467e-05, No Iterations 5
DICPCG:  Solving for p_rgh, Initial residual = 0.000285959, Final residual = 1.41027e-05, No Iterations 7
DICPCG:  Solving for p_rgh, Initial residual = 6.45348e-05, Final residual = 3.19216e-06, No Iterations 18
time step continuity errors : sum local = 7.98971e-06, global = -2.39386e-06, cumulative = -4.86171e-05
DICPCG:  Solving for p_rgh, Initial residual = 6.73215e-05, Final residual = 3.13887e-06, No Iterations 10
DICPCG:  Solving for p_rgh, Initial residual = 1.47302e-05, Final residual = 6.32039e-07, No Iterations 20
DICPCG:  Solving for p_rgh, Initial residual = 4.90863e-06, Final residual = 2.07147e-07, No Iterations 8
DICPCG:  Solving for p_rgh, Initial residual = 1.03687e-06, Final residual = 9.21163e-08, No Iterations 12
time step continuity errors : sum local = 2.30747e-07, global = -3.67885e-08, cumulative = -4.86539e-05
ExecutionTime = 4.17 s  ClockTime = 5 s

Courant Number mean: 0.0261336 max: 0.95595
Interface Courant Number mean: 0.00353606 max: 0.58632
deltaT = 0.00282641
Time = 0.0189095

PIMPLE: iteration 1
smoothSolver:  Solving for alpha.water, Initial residual = 0.00272951, Final residual = 7.02306e-10, No Iterations 3
Phase-1 volume fraction = 0.105466  Min(alpha.water) = -9.48201e-28  Max(alpha.water) = 1.0002
MULES: Correcting alpha.water
Phase-1 volume fraction = 0.105466  Min(alpha.water) = -1.10831e-13  Max(alpha.water) = 1.0002
DICPCG:  Solving for p_rgh, Initial residual = 0.0115509, Final residual = 0.00040912, No Iterations 2
DICPCG:  Solving for p_rgh, Initial residual = 0.00152179, Final residual = 5.17364e-05, No Iterations 6
DICPCG:  Solving for p_rgh, Initial residual = 0.0002941, Final residual = 1.20209e-05, No Iterations 8
DICPCG:  Solving for p_rgh, Initial residual = 6.35039e-05, Final residual = 3.08192e-06, No Iterations 12
time step continuity errors : sum local = 8.85364e-06, global = -2.01265e-06, cumulative = -5.06665e-05
DICPCG:  Solving for p_rgh, Initial residual = 6.96054e-05, Final residual = 3.44209e-06, No Iterations 13
DICPCG:  Solving for p_rgh, Initial residual = 1.56577e-05, Final residual = 6.9935e-07, No Iterations 19
DICPCG:  Solving for p_rgh, Initial residual = 5.16196e-06, Final residual = 2.56132e-07, No Iterations 8
DICPCG:  Solving for p_rgh, Initial residual = 1.12725e-06, Final residual = 8.57403e-08, No Iterations 13
time step continuity errors : sum local = 2.46414e-07, global = -6.38632e-08, cumulative = -5.07304e-05
ExecutionTime = 4.58 s  ClockTime = 5 s

Courant Number mean: 0.031728 max: 1.11736
Interface Courant Number mean: 0.00433671 max: 0.634013
deltaT = 0.00259088
Time = 0.0215003

PIMPLE: iteration 1
smoothSolver:  Solving for alpha.water, Initial residual = 0.00267315, Final residual = 7.18196e-10, No Iterations 3
Phase-1 volume fraction = 0.105679  Min(alpha.water) = -1.98241e-20  Max(alpha.water) = 1.0002
MULES: Correcting alpha.water
Phase-1 volume fraction = 0.105679  Min(alpha.water) = -5.20012e-12  Max(alpha.water) = 1.0002
DICPCG:  Solving for p_rgh, Initial residual = 0.0119654, Final residual = 0.000418069, No Iterations 2
DICPCG:  Solving for p_rgh, Initial residual = 0.00148844, Final residual = 5.5396e-05, No Iterations 6
DICPCG:  Solving for p_rgh, Initial residual = 0.000278539, Final residual = 1.34078e-05, No Iterations 8
DICPCG:  Solving for p_rgh, Initial residual = 6.04496e-05, Final residual = 2.48586e-06, No Iterations 12
time step continuity errors : sum local = 6.00498e-06, global = -4.68474e-07, cumulative = -5.11988e-05
DICPCG:  Solving for p_rgh, Initial residual = 6.09481e-05, Final residual = 3.00136e-06, No Iterations 10
DICPCG:  Solving for p_rgh, Initial residual = 1.30849e-05, Final residual = 6.14439e-07, No Iterations 20
DICPCG:  Solving for p_rgh, Initial residual = 4.48931e-06, Final residual = 2.23899e-07, No Iterations 9
DICPCG:  Solving for p_rgh, Initial residual = 1.1027e-06, Final residual = 8.72464e-08, No Iterations 13
time step continuity errors : sum local = 2.10849e-07, global = -5.64858e-08, cumulative = -5.12553e-05
ExecutionTime = 4.97 s  ClockTime = 6 s

Courant Number mean: 0.0319154 max: 1.02654
Interface Courant Number mean: 0.00426774 max: 0.69032
deltaT = 0.00259088
Time = 0.0240912

PIMPLE: iteration 1
smoothSolver:  Solving for alpha.water, Initial residual = 0.00282362, Final residual = 1.17182e-09, No Iterations 3
Phase-1 volume fraction = 0.105892  Min(alpha.water) = -9.26405e-22  Max(alpha.water) = 1.0002
MULES: Correcting alpha.water
Phase-1 volume fraction = 0.105892  Min(alpha.water) = -1.27751e-11  Max(alpha.water) = 1.0002
DICPCG:  Solving for p_rgh, Initial residual = 0.0130296, Final residual = 0.000449578, No Iterations 2
DICPCG:  Solving for p_rgh, Initial residual = 0.00156844, Final residual = 5.94103e-05, No Iterations 6
DICPCG:  Solving for p_rgh, Initial residual = 0.000282989, Final residual = 1.2798e-05, No Iterations 8
DICPCG:  Solving for p_rgh, Initial residual = 6.1692e-05, Final residual = 2.43851e-06, No Iterations 12
time step continuity errors : sum local = 5.80956e-06, global = 7.13563e-07, cumulative = -5.05418e-05
DICPCG:  Solving for p_rgh, Initial residual = 6.01965e-05, Final residual = 2.88378e-06, No Iterations 9
DICPCG:  Solving for p_rgh, Initial residual = 1.28266e-05, Final residual = 6.4563e-07, No Iterations 20
DICPCG:  Solving for p_rgh, Initial residual = 4.22568e-06, Final residual = 2.01587e-07, No Iterations 13
DICPCG:  Solving for p_rgh, Initial residual = 1.14001e-06, Final residual = 9.73018e-08, No Iterations 11
time step continuity errors : sum local = 2.31908e-07, global = -7.47232e-08, cumulative = -5.06165e-05
ExecutionTime = 5.37 s  ClockTime = 6 s

Courant Number mean: 0.0346616 max: 1.12015
Interface Courant Number mean: 0.00460945 max: 0.688724
deltaT = 0.00235534
Time = 0.0264466

PIMPLE: iteration 1
smoothSolver:  Solving for alpha.water, Initial residual = 0.00270228, Final residual = 1.06052e-09, No Iterations 3
Phase-1 volume fraction = 0.106085  Min(alpha.water) = -5.91393e-28  Max(alpha.water) = 1.00019
MULES: Correcting alpha.water
Phase-1 volume fraction = 0.106085  Min(alpha.water) = -2.25486e-13  Max(alpha.water) = 1.00019
DICPCG:  Solving for p_rgh, Initial residual = 0.0130106, Final residual = 0.000441559, No Iterations 2
DICPCG:  Solving for p_rgh, Initial residual = 0.00152511, Final residual = 5.87763e-05, No Iterations 6
DICPCG:  Solving for p_rgh, Initial residual = 0.000262105, Final residual = 1.3103e-05, No Iterations 9
DICPCG:  Solving for p_rgh, Initial residual = 5.72866e-05, Final residual = 2.2165e-06, No Iterations 12
time step continuity errors : sum local = 4.35599e-06, global = 1.07581e-06, cumulative = -4.95407e-05
DICPCG:  Solving for p_rgh, Initial residual = 5.32348e-05, Final residual = 2.24697e-06, No Iterations 9
DICPCG:  Solving for p_rgh, Initial residual = 1.1568e-05, Final residual = 4.7696e-07, No Iterations 20
DICPCG:  Solving for p_rgh, Initial residual = 3.24312e-06, Final residual = 1.54729e-07, No Iterations 10
DICPCG:  Solving for p_rgh, Initial residual = 9.55359e-07, Final residual = 9.97932e-08, No Iterations 11
time step continuity errors : sum local = 1.96118e-07, global = -5.07513e-08, cumulative = -4.95914e-05
ExecutionTime = 5.76 s  ClockTime = 6 s

Courant Number mean: 0.0337038 max: 1.08151
Interface Courant Number mean: 0.00440672 max: 0.673206
deltaT = 0.00214122
Time = 0.0285878

PIMPLE: iteration 1
smoothSolver:  Solving for alpha.water, Initial residual = 0.00257096, Final residual = 9.18871e-10, No Iterations 3
Phase-1 volume fraction = 0.10626  Min(alpha.water) = -5.00029e-28  Max(alpha.water) = 1.00019
MULES: Correcting alpha.water
Phase-1 volume fraction = 0.10626  Min(alpha.water) = -6.43985e-14  Max(alpha.water) = 1.00019
DICPCG:  Solving for p_rgh, Initial residual = 0.012692, Final residual = 0.000431548, No Iterations 2
DICPCG:  Solving for p_rgh, Initial residual = 0.00147006, Final residual = 5.649e-05, No Iterations 6
DICPCG:  Solving for p_rgh, Initial residual = 0.000244445, Final residual = 1.16231e-05, No Iterations 10
DICPCG:  Solving for p_rgh, Initial residual = 5.50943e-05, Final residual = 2.62917e-06, No Iterations 9
time step continuity errors : sum local = 4.2619e-06, global = 1.07876e-06, cumulative = -4.85127e-05
DICPCG:  Solving for p_rgh, Initial residual = 4.95556e-05, Final residual = 2.04524e-06, No Iterations 9
DICPCG:  Solving for p_rgh, Initial residual = 1.0692e-05, Final residual = 4.86435e-07, No Iterations 20
DICPCG:  Solving for p_rgh, Initial residual = 3.151e-06, Final residual = 1.54226e-07, No Iterations 10
DICPCG:  Solving for p_rgh, Initial residual = 9.12851e-07, Final residual = 9.86313e-08, No Iterations 10
time step continuity errors : sum local = 1.59821e-07, global = -4.72552e-08, cumulative = -4.85599e-05
ExecutionTime = 6.16 s  ClockTime = 7 s

Courant Number mean: 0.0323981 max: 1.01436
Interface Courant Number mean: 0.00425585 max: 0.614133
deltaT = 0.00214122
Time = 0.030729

PIMPLE: iteration 1
smoothSolver:  Solving for alpha.water, Initial residual = 0.00267628, Final residual = 1.39147e-09, No Iterations 3
Phase-1 volume fraction = 0.106436  Min(alpha.water) = -4.17603e-28  Max(alpha.water) = 1.00019
MULES: Correcting alpha.water
Phase-1 volume fraction = 0.106436  Min(alpha.water) = -8.87406e-14  Max(alpha.water) = 1.00019
DICPCG:  Solving for p_rgh, Initial residual = 0.0131689, Final residual = 0.000457167, No Iterations 2
DICPCG:  Solving for p_rgh, Initial residual = 0.00152061, Final residual = 5.78595e-05, No Iterations 6
DICPCG:  Solving for p_rgh, Initial residual = 0.000249569, Final residual = 1.18109e-05, No Iterations 8
DICPCG:  Solving for p_rgh, Initial residual = 5.72964e-05, Final residual = 2.31755e-06, No Iterations 12
time step continuity errors : sum local = 3.69773e-06, global = 9.86963e-08, cumulative = -4.84612e-05
DICPCG:  Solving for p_rgh, Initial residual = 5.4031e-05, Final residual = 2.58168e-06, No Iterations 9
DICPCG:  Solving for p_rgh, Initial residual = 1.11515e-05, Final residual = 5.77499e-07, No Iterations 20
DICPCG:  Solving for p_rgh, Initial residual = 3.62499e-06, Final residual = 1.7879e-07, No Iterations 12
DICPCG:  Solving for p_rgh, Initial residual = 1.02334e-06, Final residual = 9.26256e-08, No Iterations 11
time step continuity errors : sum local = 1.47858e-07, global = -4.49182e-08, cumulative = -4.85061e-05
ExecutionTime = 6.57 s  ClockTime = 7 s

Courant Number mean: 0.0341149 max: 1.04215
Interface Courant Number mean: 0.00447608 max: 0.635587
deltaT = 0.00214122
Time = 0.0328702

PIMPLE: iteration 1
smoothSolver:  Solving for alpha.water, Initial residual = 0.0027784, Final residual = 2.09517e-09, No Iterations 3
Phase-1 volume fraction = 0.106611  Min(alpha.water) = -3.45441e-28  Max(alpha.water) = 1.00018
MULES: Correcting alpha.water
Phase-1 volume fraction = 0.106611  Min(alpha.water) = -9.66501e-14  Max(alpha.water) = 1.00018
DICPCG:  Solving for p_rgh, Initial residual = 0.0135204, Final residual = 0.000482056, No Iterations 2
DICPCG:  Solving for p_rgh, Initial residual = 0.0015564, Final residual = 5.94382e-05, No Iterations 6
DICPCG:  Solving for p_rgh, Initial residual = 0.000251348, Final residual = 1.24717e-05, No Iterations 8
DICPCG:  Solving for p_rgh, Initial residual = 5.88388e-05, Final residual = 2.43953e-06, No Iterations 12
time step continuity errors : sum local = 3.83343e-06, global = 1.46175e-07, cumulative = -4.836e-05
DICPCG:  Solving for p_rgh, Initial residual = 5.76895e-05, Final residual = 2.69014e-06, No Iterations 9
DICPCG:  Solving for p_rgh, Initial residual = 1.19866e-05, Final residual = 6.08894e-07, No Iterations 20
DICPCG:  Solving for p_rgh, Initial residual = 3.84211e-06, Final residual = 1.86809e-07, No Iterations 12
DICPCG:  Solving for p_rgh, Initial residual = 1.09701e-06, Final residual = 9.75369e-08, No Iterations 11
time step continuity errors : sum local = 1.53363e-07, global = -4.61683e-08, cumulative = -4.84061e-05
ExecutionTime = 6.97 s  ClockTime = 8 s

Courant Number mean: 0.035831 max: 1.06282
Interface Courant Number mean: 0.00476354 max: 0.648925
deltaT = 0.00190331
Time = 0.0347735

PIMPLE: iteration 1
smoothSolver:  Solving for alpha.water, Initial residual = 0.00255866, Final residual = 1.50955e-09, No Iterations 3
Phase-1 volume fraction = 0.106767  Min(alpha.water) = -8.28865e-23  Max(alpha.water) = 1.00018
MULES: Correcting alpha.water
Phase-1 volume fraction = 0.106767  Min(alpha.water) = -1.05787e-10  Max(alpha.water) = 1.00018
DICPCG:  Solving for p_rgh, Initial residual = 0.0123853, Final residual = 0.000456181, No Iterations 2
DICPCG:  Solving for p_rgh, Initial residual = 0.00143207, Final residual = 5.57585e-05, No Iterations 6
DICPCG:  Solving for p_rgh, Initial residual = 0.00022776, Final residual = 1.08506e-05, No Iterations 10
DICPCG:  Solving for p_rgh, Initial residual = 5.47315e-05, Final residual = 2.34257e-06, No Iterations 11
time step continuity errors : sum local = 2.91466e-06, global = 6.13562e-07, cumulative = -4.77926e-05
DICPCG:  Solving for p_rgh, Initial residual = 5.06809e-05, Final residual = 2.16735e-06, No Iterations 9
DICPCG:  Solving for p_rgh, Initial residual = 1.12894e-05, Final residual = 4.90659e-07, No Iterations 20
DICPCG:  Solving for p_rgh, Initial residual = 3.17116e-06, Final residual = 1.55576e-07, No Iterations 10
DICPCG:  Solving for p_rgh, Initial residual = 1.00179e-06, Final residual = 9.51078e-08, No Iterations 12
time step continuity errors : sum local = 1.18305e-07, global = -2.25752e-08, cumulative = -4.78151e-05
ExecutionTime = 7.37 s  ClockTime = 8 s

Courant Number mean: 0.0331856 max: 0.965864
Interface Courant Number mean: 0.00439967 max: 0.578951
deltaT = 0.00190331
Time = 0.0366768

PIMPLE: iteration 1
smoothSolver:  Solving for alpha.water, Initial residual = 0.00263536, Final residual = 2.02342e-09, No Iterations 3
Phase-1 volume fraction = 0.106923  Min(alpha.water) = -5.89294e-23  Max(alpha.water) = 1.00018
MULES: Correcting alpha.water
Phase-1 volume fraction = 0.106923  Min(alpha.water) = -5.38077e-14  Max(alpha.water) = 1.00018
DICPCG:  Solving for p_rgh, Initial residual = 0.0124473, Final residual = 0.000464859, No Iterations 2
DICPCG:  Solving for p_rgh, Initial residual = 0.00143844, Final residual = 5.41358e-05, No Iterations 6
DICPCG:  Solving for p_rgh, Initial residual = 0.00022831, Final residual = 1.13904e-05, No Iterations 9
DICPCG:  Solving for p_rgh, Initial residual = 5.59964e-05, Final residual = 2.05701e-06, No Iterations 12
time step continuity errors : sum local = 2.5309e-06, global = -1.54606e-07, cumulative = -4.79698e-05
DICPCG:  Solving for p_rgh, Initial residual = 5.41554e-05, Final residual = 2.34076e-06, No Iterations 10
DICPCG:  Solving for p_rgh, Initial residual = 1.22488e-05, Final residual = 5.9021e-07, No Iterations 20
DICPCG:  Solving for p_rgh, Initial residual = 3.90833e-06, Final residual = 1.91179e-07, No Iterations 9
DICPCG:  Solving for p_rgh, Initial residual = 1.09925e-06, Final residual = 9.81883e-08, No Iterations 12
time step continuity errors : sum local = 1.2084e-07, global = -2.68321e-08, cumulative = -4.79966e-05
ExecutionTime = 7.76 s  ClockTime = 8 s

Courant Number mean: 0.0345069 max: 0.975317
Interface Courant Number mean: 0.00475298 max: 0.615541
deltaT = 0.00190331
Time = 0.0385802

PIMPLE: iteration 1
smoothSolver:  Solving for alpha.water, Initial residual = 0.00271679, Final residual = 2.63432e-09, No Iterations 3
Phase-1 volume fraction = 0.107079  Min(alpha.water) = -4.10975e-23  Max(alpha.water) = 1.00018
MULES: Correcting alpha.water
Phase-1 volume fraction = 0.107079  Min(alpha.water) = -6.0469e-12  Max(alpha.water) = 1.00018
DICPCG:  Solving for p_rgh, Initial residual = 0.0120712, Final residual = 0.000473633, No Iterations 2
DICPCG:  Solving for p_rgh, Initial residual = 0.00140585, Final residual = 5.23185e-05, No Iterations 6
DICPCG:  Solving for p_rgh, Initial residual = 0.000222655, Final residual = 9.7819e-06, No Iterations 10
DICPCG:  Solving for p_rgh, Initial residual = 5.50832e-05, Final residual = 2.69859e-06, No Iterations 9
time step continuity errors : sum local = 3.27602e-06, global = 6.11502e-07, cumulative = -4.73851e-05
DICPCG:  Solving for p_rgh, Initial residual = 5.76762e-05, Final residual = 2.68351e-06, No Iterations 9
DICPCG:  Solving for p_rgh, Initial residual = 1.33894e-05, Final residual = 6.4174e-07, No Iterations 20
DICPCG:  Solving for p_rgh, Initial residual = 4.09924e-06, Final residual = 2.0109e-07, No Iterations 12
DICPCG:  Solving for p_rgh, Initial residual = 1.19817e-06, Final residual = 9.12272e-08, No Iterations 14
time step continuity errors : sum local = 1.10729e-07, global = -2.92426e-08, cumulative = -4.74143e-05
ExecutionTime = 8.16 s  ClockTime = 9 s

Courant Number mean: 0.0358186 max: 0.989871
Interface Courant Number mean: 0.00504388 max: 0.622331
deltaT = 0.00190331
Time = 0.0404835

PIMPLE: iteration 1
smoothSolver:  Solving for alpha.water, Initial residual = 0.0027934, Final residual = 3.33319e-09, No Iterations 3
Phase-1 volume fraction = 0.107235  Min(alpha.water) = -2.69864e-23  Max(alpha.water) = 1.00017
MULES: Correcting alpha.water
Phase-1 volume fraction = 0.107235  Min(alpha.water) = -4.50226e-14  Max(alpha.water) = 1.00017
DICPCG:  Solving for p_rgh, Initial residual = 0.011782, Final residual = 0.000480582, No Iterations 2
DICPCG:  Solving for p_rgh, Initial residual = 0.00137467, Final residual = 5.43949e-05, No Iterations 6
DICPCG:  Solving for p_rgh, Initial residual = 0.000224073, Final residual = 1.01379e-05, No Iterations 10
DICPCG:  Solving for p_rgh, Initial residual = 5.48082e-05, Final residual = 2.63999e-06, No Iterations 11
time step continuity errors : sum local = 3.16537e-06, global = -2.82761e-08, cumulative = -4.74426e-05
DICPCG:  Solving for p_rgh, Initial residual = 6.07126e-05, Final residual = 2.59458e-06, No Iterations 10
DICPCG:  Solving for p_rgh, Initial residual = 1.40826e-05, Final residual = 6.93206e-07, No Iterations 20
DICPCG:  Solving for p_rgh, Initial residual = 4.30185e-06, Final residual = 2.07726e-07, No Iterations 9
DICPCG:  Solving for p_rgh, Initial residual = 1.21905e-06, Final residual = 8.44892e-08, No Iterations 13
time step continuity errors : sum local = 1.01292e-07, global = -3.17754e-08, cumulative = -4.74744e-05
ExecutionTime = 8.55 s  ClockTime = 9 s

Courant Number mean: 0.0371273 max: 1.00184
Interface Courant Number mean: 0.00533695 max: 0.618669
deltaT = 0.00190331
Time = 0.0423868

PIMPLE: iteration 1
smoothSolver:  Solving for alpha.water, Initial residual = 0.00286522, Final residual = 4.03469e-09, No Iterations 3
Phase-1 volume fraction = 0.107391  Min(alpha.water) = -1.02939e-26  Max(alpha.water) = 1.00017
MULES: Correcting alpha.water
Phase-1 volume fraction = 0.107391  Min(alpha.water) = -2.86412e-15  Max(alpha.water) = 1.00017
DICPCG:  Solving for p_rgh, Initial residual = 0.0112719, Final residual = 0.000500583, No Iterations 2
DICPCG:  Solving for p_rgh, Initial residual = 0.00131662, Final residual = 5.24503e-05, No Iterations 6
DICPCG:  Solving for p_rgh, Initial residual = 0.000219887, Final residual = 9.6404e-06, No Iterations 10
DICPCG:  Solving for p_rgh, Initial residual = 5.29545e-05, Final residual = 2.61901e-06, No Iterations 9
time step continuity errors : sum local = 3.11997e-06, global = 6.91108e-07, cumulative = -4.67833e-05
DICPCG:  Solving for p_rgh, Initial residual = 6.00361e-05, Final residual = 2.92873e-06, No Iterations 9
DICPCG:  Solving for p_rgh, Initial residual = 1.43498e-05, Final residual = 6.90464e-07, No Iterations 20
DICPCG:  Solving for p_rgh, Initial residual = 4.23507e-06, Final residual = 2.0912e-07, No Iterations 12
DICPCG:  Solving for p_rgh, Initial residual = 1.2525e-06, Final residual = 9.6745e-08, No Iterations 14
time step continuity errors : sum local = 1.1523e-07, global = -3.07487e-08, cumulative = -4.6814e-05
ExecutionTime = 8.93 s  ClockTime = 9 s

Courant Number mean: 0.0384262 max: 1.00769
Interface Courant Number mean: 0.00556241 max: 0.642514
deltaT = 0.00190331
Time = 0.0442901

PIMPLE: iteration 1
smoothSolver:  Solving for alpha.water, Initial residual = 0.00295706, Final residual = 4.65858e-09, No Iterations 3
Phase-1 volume fraction = 0.107547  Min(alpha.water) = -6.30625e-27  Max(alpha.water) = 1.00016
MULES: Correcting alpha.water
Phase-1 volume fraction = 0.107547  Min(alpha.water) = -2.06094e-14  Max(alpha.water) = 1.00016
DICPCG:  Solving for p_rgh, Initial residual = 0.0115611, Final residual = 0.000293421, No Iterations 3
DICPCG:  Solving for p_rgh, Initial residual = 0.0012242, Final residual = 4.5305e-05, No Iterations 6
DICPCG:  Solving for p_rgh, Initial residual = 0.000203299, Final residual = 8.73642e-06, No Iterations 10
DICPCG:  Solving for p_rgh, Initial residual = 4.8172e-05, Final residual = 1.88504e-06, No Iterations 12
time step continuity errors : sum local = 2.28492e-06, global = -3.9718e-09, cumulative = -4.6818e-05
DICPCG:  Solving for p_rgh, Initial residual = 6.11516e-05, Final residual = 2.66033e-06, No Iterations 10
DICPCG:  Solving for p_rgh, Initial residual = 1.42073e-05, Final residual = 7.02228e-07, No Iterations 20
DICPCG:  Solving for p_rgh, Initial residual = 4.13146e-06, Final residual = 1.92171e-07, No Iterations 9
DICPCG:  Solving for p_rgh, Initial residual = 1.16292e-06, Final residual = 9.98656e-08, No Iterations 12
time step continuity errors : sum local = 1.21008e-07, global = -3.1333e-08, cumulative = -4.68493e-05
ExecutionTime = 9.33 s  ClockTime = 10 s

Courant Number mean: 0.039707 max: 1.01057
Interface Courant Number mean: 0.00570377 max: 0.640721
deltaT = 0.00190331
Time = 0.0461934

PIMPLE: iteration 1
smoothSolver:  Solving for alpha.water, Initial residual = 0.0030745, Final residual = 5.22222e-09, No Iterations 3
Phase-1 volume fraction = 0.107703  Min(alpha.water) = -3.88351e-27  Max(alpha.water) = 1.00016
MULES: Correcting alpha.water
Phase-1 volume fraction = 0.107703  Min(alpha.water) = -1.02339e-12  Max(alpha.water) = 1.00016
DICPCG:  Solving for p_rgh, Initial residual = 0.012872, Final residual = 0.000538193, No Iterations 2
DICPCG:  Solving for p_rgh, Initial residual = 0.00120967, Final residual = 5.67498e-05, No Iterations 6
DICPCG:  Solving for p_rgh, Initial residual = 0.000218618, Final residual = 9.73496e-06, No Iterations 10
DICPCG:  Solving for p_rgh, Initial residual = 4.87709e-05, Final residual = 1.94102e-06, No Iterations 12
time step continuity errors : sum local = 2.37243e-06, global = 5.70105e-08, cumulative = -4.67923e-05
DICPCG:  Solving for p_rgh, Initial residual = 6.08743e-05, Final residual = 2.99562e-06, No Iterations 9
DICPCG:  Solving for p_rgh, Initial residual = 1.39806e-05, Final residual = 7.46572e-07, No Iterations 20
DICPCG:  Solving for p_rgh, Initial residual = 3.96531e-06, Final residual = 1.96657e-07, No Iterations 9
DICPCG:  Solving for p_rgh, Initial residual = 1.15059e-06, Final residual = 9.41668e-08, No Iterations 13
time step continuity errors : sum local = 1.15078e-07, global = -3.2696e-08, cumulative = -4.6825e-05
ExecutionTime = 9.72 s  ClockTime = 10 s

Courant Number mean: 0.0410226 max: 1.02126
Interface Courant Number mean: 0.00609022 max: 0.650557
deltaT = 0.00190331
Time = 0.0480967

PIMPLE: iteration 1
smoothSolver:  Solving for alpha.water, Initial residual = 0.00316366, Final residual = 5.45833e-09, No Iterations 3
Phase-1 volume fraction = 0.10786  Min(alpha.water) = -1.28184e-27  Max(alpha.water) = 1.00016
MULES: Correcting alpha.water
Phase-1 volume fraction = 0.10786  Min(alpha.water) = -1.81767e-13  Max(alpha.water) = 1.00016
DICPCG:  Solving for p_rgh, Initial residual = 0.0133265, Final residual = 0.000549401, No Iterations 2
DICPCG:  Solving for p_rgh, Initial residual = 0.00126542, Final residual = 5.97287e-05, No Iterations 6
DICPCG:  Solving for p_rgh, Initial residual = 0.000225194, Final residual = 1.11361e-05, No Iterations 9
DICPCG:  Solving for p_rgh, Initial residual = 4.91896e-05, Final residual = 2.1671e-06, No Iterations 12
time step continuity errors : sum local = 2.63179e-06, global = -8.86318e-08, cumulative = -4.69136e-05
DICPCG:  Solving for p_rgh, Initial residual = 6.49076e-05, Final residual = 3.09949e-06, No Iterations 9
DICPCG:  Solving for p_rgh, Initial residual = 1.47546e-05, Final residual = 7.45804e-07, No Iterations 20
DICPCG:  Solving for p_rgh, Initial residual = 4.08484e-06, Final residual = 2.02253e-07, No Iterations 9
DICPCG:  Solving for p_rgh, Initial residual = 1.1266e-06, Final residual = 9.01983e-08, No Iterations 13
time step continuity errors : sum local = 1.09564e-07, global = -3.60688e-08, cumulative = -4.69497e-05
ExecutionTime = 10.11 s  ClockTime = 11 s

Courant Number mean: 0.0423471 max: 1.02981
Interface Courant Number mean: 0.00634405 max: 0.64864
deltaT = 0.00190331
Time = 0.05

PIMPLE: iteration 1
smoothSolver:  Solving for alpha.water, Initial residual = 0.0032728, Final residual = 5.39887e-09, No Iterations 3
Phase-1 volume fraction = 0.108016  Min(alpha.water) = -9.12367e-28  Max(alpha.water) = 1.00015
MULES: Correcting alpha.water
Phase-1 volume fraction = 0.108016  Min(alpha.water) = -1.42838e-13  Max(alpha.water) = 1.00015
DICPCG:  Solving for p_rgh, Initial residual = 0.0117279, Final residual = 0.000511409, No Iterations 2
DICPCG:  Solving for p_rgh, Initial residual = 0.00114069, Final residual = 5.56493e-05, No Iterations 6
DICPCG:  Solving for p_rgh, Initial residual = 0.000221081, Final residual = 9.68195e-06, No Iterations 10
DICPCG:  Solving for p_rgh, Initial residual = 4.72581e-05, Final residual = 2.01677e-06, No Iterations 12
time step continuity errors : sum local = 2.42247e-06, global = -1.93678e-07, cumulative = -4.71434e-05
DICPCG:  Solving for p_rgh, Initial residual = 6.55031e-05, Final residual = 3.01279e-06, No Iterations 10
DICPCG:  Solving for p_rgh, Initial residual = 1.47779e-05, Final residual = 7.73702e-07, No Iterations 20
DICPCG:  Solving for p_rgh, Initial residual = 4.11688e-06, Final residual = 1.82894e-07, No Iterations 9
DICPCG:  Solving for p_rgh, Initial residual = 9.97851e-07, Final residual = 9.47941e-08, No Iterations 12
time step continuity errors : sum local = 1.13836e-07, global = -2.98808e-08, cumulative = -4.71733e-05
ExecutionTime = 11.21 s  ClockTime = 12 s

Courant Number mean: 0.0437324 max: 1.04088
Interface Courant Number mean: 0.00656085 max: 0.661267
deltaT = 0.00185185
Time = 0.0518519

PIMPLE: iteration 1
smoothSolver:  Solving for alpha.water, Initial residual = 0.00328739, Final residual = 4.53085e-09, No Iterations 3
Phase-1 volume fraction = 0.108168  Min(alpha.water) = -6.495e-28  Max(alpha.water) = 1.00015
MULES: Correcting alpha.water
Phase-1 volume fraction = 0.108168  Min(alpha.water) = -3.05533e-14  Max(alpha.water) = 1.00015
DICPCG:  Solving for p_rgh, Initial residual = 0.0123902, Final residual = 0.000482408, No Iterations 2
DICPCG:  Solving for p_rgh, Initial residual = 0.00125238, Final residual = 5.84415e-05, No Iterations 6
DICPCG:  Solving for p_rgh, Initial residual = 0.000223775, Final residual = 1.01508e-05, No Iterations 10
DICPCG:  Solving for p_rgh, Initial residual = 4.39953e-05, Final residual = 1.85955e-06, No Iterations 12
time step continuity errors : sum local = 2.13376e-06, global = -1.33792e-07, cumulative = -4.73071e-05
DICPCG:  Solving for p_rgh, Initial residual = 6.21622e-05, Final residual = 2.8199e-06, No Iterations 10
DICPCG:  Solving for p_rgh, Initial residual = 1.3735e-05, Final residual = 7.62143e-07, No Iterations 20
DICPCG:  Solving for p_rgh, Initial residual = 3.79482e-06, Final residual = 1.5973e-07, No Iterations 9
DICPCG:  Solving for p_rgh, Initial residual = 8.82703e-07, Final residual = 8.44551e-08, No Iterations 12
time step continuity errors : sum local = 9.68814e-08, global = -2.90529e-08, cumulative = -4.73361e-05
ExecutionTime = 11.62 s  ClockTime = 12 s

Courant Number mean: 0.0439681 max: 1.02644
Interface Courant Number mean: 0.00641469 max: 0.638839
deltaT = 0.00178326
Time = 0.0536351

PIMPLE: iteration 1
smoothSolver:  Solving for alpha.water, Initial residual = 0.0032525, Final residual = 3.66408e-09, No Iterations 3
Phase-1 volume fraction = 0.108315  Min(alpha.water) = -4.63774e-28  Max(alpha.water) = 1.00015
MULES: Correcting alpha.water
Phase-1 volume fraction = 0.108315  Min(alpha.water) = -4.91006e-15  Max(alpha.water) = 1.00015
DICPCG:  Solving for p_rgh, Initial residual = 0.0108985, Final residual = 0.000445075, No Iterations 2
DICPCG:  Solving for p_rgh, Initial residual = 0.00112666, Final residual = 5.40593e-05, No Iterations 6
DICPCG:  Solving for p_rgh, Initial residual = 0.000203875, Final residual = 1.00745e-05, No Iterations 10
DICPCG:  Solving for p_rgh, Initial residual = 4.01336e-05, Final residual = 1.78516e-06, No Iterations 12
time step continuity errors : sum local = 1.88132e-06, global = 2.36042e-07, cumulative = -4.71001e-05
DICPCG:  Solving for p_rgh, Initial residual = 6.05415e-05, Final residual = 2.53647e-06, No Iterations 10
DICPCG:  Solving for p_rgh, Initial residual = 1.29836e-05, Final residual = 6.8717e-07, No Iterations 20
DICPCG:  Solving for p_rgh, Initial residual = 3.25697e-06, Final residual = 1.49892e-07, No Iterations 9
DICPCG:  Solving for p_rgh, Initial residual = 7.42562e-07, Final residual = 8.16793e-08, No Iterations 12
time step continuity errors : sum local = 8.60402e-08, global = -2.15132e-08, cumulative = -4.71216e-05
ExecutionTime = 12.03 s  ClockTime = 13 s

Courant Number mean: 0.0435938 max: 1.00435
Interface Courant Number mean: 0.00637611 max: 0.64775
deltaT = 0.00178326
Time = 0.0554184

PIMPLE: iteration 1
smoothSolver:  Solving for alpha.water, Initial residual = 0.00331021, Final residual = 3.91852e-09, No Iterations 3
Phase-1 volume fraction = 0.108461  Min(alpha.water) = -3.28883e-28  Max(alpha.water) = 1.00015
MULES: Correcting alpha.water
Phase-1 volume fraction = 0.108461  Min(alpha.water) = -1.87546e-13  Max(alpha.water) = 1.00015
DICPCG:  Solving for p_rgh, Initial residual = 0.010577, Final residual = 0.000422999, No Iterations 2
DICPCG:  Solving for p_rgh, Initial residual = 0.00112131, Final residual = 2.95343e-05, No Iterations 7
DICPCG:  Solving for p_rgh, Initial residual = 0.000187601, Final residual = 7.73815e-06, No Iterations 10
DICPCG:  Solving for p_rgh, Initial residual = 3.365e-05, Final residual = 1.37363e-06, No Iterations 13
time step continuity errors : sum local = 1.4401e-06, global = 2.24632e-07, cumulative = -4.6897e-05
DICPCG:  Solving for p_rgh, Initial residual = 6.08346e-05, Final residual = 3.0291e-06, No Iterations 9
DICPCG:  Solving for p_rgh, Initial residual = 1.2882e-05, Final residual = 6.86835e-07, No Iterations 20
DICPCG:  Solving for p_rgh, Initial residual = 3.16539e-06, Final residual = 1.49145e-07, No Iterations 14
DICPCG:  Solving for p_rgh, Initial residual = 6.79958e-07, Final residual = 9.75742e-08, No Iterations 6
time step continuity errors : sum local = 1.0222e-07, global = -5.97792e-08, cumulative = -4.69567e-05
ExecutionTime = 12.4 s  ClockTime = 13 s

Courant Number mean: 0.0448096 max: 1.02341
Interface Courant Number mean: 0.00650576 max: 0.635709
deltaT = 0.00171468
Time = 0.0571331

PIMPLE: iteration 1
smoothSolver:  Solving for alpha.water, Initial residual = 0.00323021, Final residual = 3.41312e-09, No Iterations 3
Phase-1 volume fraction = 0.108602  Min(alpha.water) = -2.34042e-28  Max(alpha.water) = 1.00014
MULES: Correcting alpha.water
Phase-1 volume fraction = 0.108602  Min(alpha.water) = -4.20349e-13  Max(alpha.water) = 1.00014
DICPCG:  Solving for p_rgh, Initial residual = 0.0098048, Final residual = 0.000414675, No Iterations 2
DICPCG:  Solving for p_rgh, Initial residual = 0.00108556, Final residual = 3.12386e-05, No Iterations 7
DICPCG:  Solving for p_rgh, Initial residual = 0.000178986, Final residual = 7.26016e-06, No Iterations 10
DICPCG:  Solving for p_rgh, Initial residual = 2.9535e-05, Final residual = 1.36425e-06, No Iterations 12
time step continuity errors : sum local = 1.33494e-06, global = 1.21007e-07, cumulative = -4.68357e-05
DICPCG:  Solving for p_rgh, Initial residual = 5.6822e-05, Final residual = 2.4624e-06, No Iterations 11
DICPCG:  Solving for p_rgh, Initial residual = 1.19564e-05, Final residual = 7.27428e-07, No Iterations 20
DICPCG:  Solving for p_rgh, Initial residual = 2.96248e-06, Final residual = 1.2791e-07, No Iterations 9
DICPCG:  Solving for p_rgh, Initial residual = 5.82567e-07, Final residual = 9.9985e-08, No Iterations 8
time step continuity errors : sum local = 9.77586e-08, global = -4.56147e-08, cumulative = -4.68813e-05
ExecutionTime = 12.8 s  ClockTime = 13 s

Courant Number mean: 0.0442182 max: 1.00434
Interface Courant Number mean: 0.00642988 max: 0.671569
deltaT = 0.00171468
Time = 0.0588477

PIMPLE: iteration 1
smoothSolver:  Solving for alpha.water, Initial residual = 0.00328493, Final residual = 3.82644e-09, No Iterations 3
Phase-1 volume fraction = 0.108743  Min(alpha.water) = -1.65465e-28  Max(alpha.water) = 1.00014
MULES: Correcting alpha.water
Phase-1 volume fraction = 0.108743  Min(alpha.water) = -7.32574e-13  Max(alpha.water) = 1.00013
DICPCG:  Solving for p_rgh, Initial residual = 0.0121555, Final residual = 0.000525796, No Iterations 2
DICPCG:  Solving for p_rgh, Initial residual = 0.0014563, Final residual = 5.37038e-05, No Iterations 7
DICPCG:  Solving for p_rgh, Initial residual = 0.000222174, Final residual = 8.15692e-06, No Iterations 10
DICPCG:  Solving for p_rgh, Initial residual = 3.65886e-05, Final residual = 1.47044e-06, No Iterations 13
time step continuity errors : sum local = 1.49995e-06, global = -9.24511e-08, cumulative = -4.69738e-05
DICPCG:  Solving for p_rgh, Initial residual = 5.57162e-05, Final residual = 1.99597e-06, No Iterations 15
DICPCG:  Solving for p_rgh, Initial residual = 1.16351e-05, Final residual = 5.49351e-07, No Iterations 16
DICPCG:  Solving for p_rgh, Initial residual = 2.74592e-06, Final residual = 1.25503e-07, No Iterations 12
DICPCG:  Solving for p_rgh, Initial residual = 5.84543e-07, Final residual = 8.7609e-08, No Iterations 3
time step continuity errors : sum local = 8.93493e-08, global = -5.16266e-08, cumulative = -4.70254e-05
ExecutionTime = 13.19 s  ClockTime = 14 s

Courant Number mean: 0.0453884 max: 1.02037
Interface Courant Number mean: 0.00653257 max: 0.631241
deltaT = 0.00171468
Time = 0.0605624

PIMPLE: iteration 1
smoothSolver:  Solving for alpha.water, Initial residual = 0.00333896, Final residual = 4.3537e-09, No Iterations 3
Phase-1 volume fraction = 0.108884  Min(alpha.water) = -1.15519e-28  Max(alpha.water) = 1.00013
MULES: Correcting alpha.water
Phase-1 volume fraction = 0.108884  Min(alpha.water) = -1.01211e-12  Max(alpha.water) = 1.00013
DICPCG:  Solving for p_rgh, Initial residual = 0.0155476, Final residual = 0.000606644, No Iterations 2
DICPCG:  Solving for p_rgh, Initial residual = 0.00163069, Final residual = 7.70579e-05, No Iterations 7
DICPCG:  Solving for p_rgh, Initial residual = 0.000248703, Final residual = 1.0325e-05, No Iterations 8
DICPCG:  Solving for p_rgh, Initial residual = 4.32264e-05, Final residual = 1.88309e-06, No Iterations 11
time step continuity errors : sum local = 1.99857e-06, global = 1.08389e-07, cumulative = -4.6917e-05
DICPCG:  Solving for p_rgh, Initial residual = 5.20098e-05, Final residual = 2.34567e-06, No Iterations 11
DICPCG:  Solving for p_rgh, Initial residual = 1.16533e-05, Final residual = 7.18728e-07, No Iterations 20
DICPCG:  Solving for p_rgh, Initial residual = 2.94787e-06, Final residual = 1.44991e-07, No Iterations 9
DICPCG:  Solving for p_rgh, Initial residual = 6.17524e-07, Final residual = 8.4842e-08, No Iterations 11
time step continuity errors : sum local = 9.01107e-08, global = -2.86095e-08, cumulative = -4.69456e-05
ExecutionTime = 13.58 s  ClockTime = 14 s

Courant Number mean: 0.0465428 max: 1.0361
Interface Courant Number mean: 0.00678826 max: 0.704307
deltaT = 0.00164323
Time = 0.0622056

PIMPLE: iteration 1
smoothSolver:  Solving for alpha.water, Initial residual = 0.00325422, Final residual = 3.78385e-09, No Iterations 3
Phase-1 volume fraction = 0.109019  Min(alpha.water) = -2.10174e-21  Max(alpha.water) = 1.00013
MULES: Correcting alpha.water
Phase-1 volume fraction = 0.109019  Min(alpha.water) = -5.61866e-11  Max(alpha.water) = 1.00013
DICPCG:  Solving for p_rgh, Initial residual = 0.0148652, Final residual = 0.000561455, No Iterations 2
DICPCG:  Solving for p_rgh, Initial residual = 0.00146395, Final residual = 7.19946e-05, No Iterations 7
DICPCG:  Solving for p_rgh, Initial residual = 0.00023022, Final residual = 1.13801e-05, No Iterations 9
DICPCG:  Solving for p_rgh, Initial residual = 3.90942e-05, Final residual = 1.70006e-06, No Iterations 13
time step continuity errors : sum local = 1.65481e-06, global = 1.40347e-07, cumulative = -4.68053e-05
DICPCG:  Solving for p_rgh, Initial residual = 4.96172e-05, Final residual = 2.39584e-06, No Iterations 11
DICPCG:  Solving for p_rgh, Initial residual = 1.10271e-05, Final residual = 7.18716e-07, No Iterations 20
DICPCG:  Solving for p_rgh, Initial residual = 2.84125e-06, Final residual = 1.39433e-07, No Iterations 9
DICPCG:  Solving for p_rgh, Initial residual = 5.82206e-07, Final residual = 8.27729e-08, No Iterations 11
time step continuity errors : sum local = 8.05975e-08, global = -2.64489e-08, cumulative = -4.68317e-05
ExecutionTime = 13.97 s  ClockTime = 15 s

Courant Number mean: 0.0456278 max: 1.00537
Interface Courant Number mean: 0.00676547 max: 0.653035
deltaT = 0.00164323
Time = 0.0638489

PIMPLE: iteration 1
smoothSolver:  Solving for alpha.water, Initial residual = 0.00330418, Final residual = 4.21793e-09, No Iterations 3
Phase-1 volume fraction = 0.109154  Min(alpha.water) = -1.70238e-22  Max(alpha.water) = 1.00013
MULES: Correcting alpha.water
Phase-1 volume fraction = 0.109154  Min(alpha.water) = -7.41218e-11  Max(alpha.water) = 1.00013
DICPCG:  Solving for p_rgh, Initial residual = 0.014229, Final residual = 0.000550193, No Iterations 2
DICPCG:  Solving for p_rgh, Initial residual = 0.00140388, Final residual = 6.96229e-05, No Iterations 7
DICPCG:  Solving for p_rgh, Initial residual = 0.000224496, Final residual = 1.11022e-05, No Iterations 9
DICPCG:  Solving for p_rgh, Initial residual = 3.79885e-05, Final residual = 1.36356e-06, No Iterations 14
time step continuity errors : sum local = 1.30799e-06, global = -2.55809e-07, cumulative = -4.70875e-05
DICPCG:  Solving for p_rgh, Initial residual = 5.25021e-05, Final residual = 2.25151e-06, No Iterations 15
DICPCG:  Solving for p_rgh, Initial residual = 1.14706e-05, Final residual = 4.76158e-07, No Iterations 17
DICPCG:  Solving for p_rgh, Initial residual = 2.69208e-06, Final residual = 1.28135e-07, No Iterations 12
DICPCG:  Solving for p_rgh, Initial residual = 5.86348e-07, Final residual = 8.68123e-08, No Iterations 3
time step continuity errors : sum local = 8.32975e-08, global = -5.20109e-08, cumulative = -4.71396e-05
ExecutionTime = 14.4 s  ClockTime = 15 s

Courant Number mean: 0.0466689 max: 1.01166
Interface Courant Number mean: 0.00695466 max: 0.641534
deltaT = 0.00164323
Time = 0.0654921

PIMPLE: iteration 1
smoothSolver:  Solving for alpha.water, Initial residual = 0.00336414, Final residual = 4.70057e-09, No Iterations 3
Phase-1 volume fraction = 0.109289  Min(alpha.water) = -2.55427e-30  Max(alpha.water) = 1.00012
MULES: Correcting alpha.water
Phase-1 volume fraction = 0.109289  Min(alpha.water) = -9.20172e-11  Max(alpha.water) = 1.00012
DICPCG:  Solving for p_rgh, Initial residual = 0.0132186, Final residual = 0.000511423, No Iterations 2
DICPCG:  Solving for p_rgh, Initial residual = 0.0012745, Final residual = 6.35072e-05, No Iterations 7
DICPCG:  Solving for p_rgh, Initial residual = 0.000208783, Final residual = 8.69097e-06, No Iterations 10
DICPCG:  Solving for p_rgh, Initial residual = 3.57255e-05, Final residual = 1.57251e-06, No Iterations 13
time step continuity errors : sum local = 1.48804e-06, global = -1.88638e-07, cumulative = -4.73282e-05
DICPCG:  Solving for p_rgh, Initial residual = 5.30965e-05, Final residual = 2.24943e-06, No Iterations 15
DICPCG:  Solving for p_rgh, Initial residual = 1.13696e-05, Final residual = 4.81104e-07, No Iterations 17
DICPCG:  Solving for p_rgh, Initial residual = 2.67734e-06, Final residual = 1.24011e-07, No Iterations 12
DICPCG:  Solving for p_rgh, Initial residual = 5.68446e-07, Final residual = 8.43054e-08, No Iterations 3
time step continuity errors : sum local = 7.97656e-08, global = -5.0052e-08, cumulative = -4.73782e-05
ExecutionTime = 14.77 s  ClockTime = 15 s

Courant Number mean: 0.0477315 max: 1.01614
Interface Courant Number mean: 0.00718699 max: 0.660361
deltaT = 0.00164323
Time = 0.0671353

PIMPLE: iteration 1
smoothSolver:  Solving for alpha.water, Initial residual = 0.00342478, Final residual = 5.22782e-09, No Iterations 3
Phase-1 volume fraction = 0.109424  Min(alpha.water) = -4.26217e-23  Max(alpha.water) = 1.00012
MULES: Correcting alpha.water
Phase-1 volume fraction = 0.109424  Min(alpha.water) = -1.19161e-10  Max(alpha.water) = 1.00012
DICPCG:  Solving for p_rgh, Initial residual = 0.0121887, Final residual = 0.000485737, No Iterations 2
DICPCG:  Solving for p_rgh, Initial residual = 0.00115528, Final residual = 5.65233e-05, No Iterations 7
DICPCG:  Solving for p_rgh, Initial residual = 0.000194933, Final residual = 8.78961e-06, No Iterations 10
DICPCG:  Solving for p_rgh, Initial residual = 3.33963e-05, Final residual = 1.27697e-06, No Iterations 14
time step continuity errors : sum local = 1.19473e-06, global = -2.72683e-07, cumulative = -4.76509e-05
DICPCG:  Solving for p_rgh, Initial residual = 5.46723e-05, Final residual = 2.40171e-06, No Iterations 15
DICPCG:  Solving for p_rgh, Initial residual = 1.11854e-05, Final residual = 5.1646e-07, No Iterations 17
DICPCG:  Solving for p_rgh, Initial residual = 2.67013e-06, Final residual = 1.30944e-07, No Iterations 12
DICPCG:  Solving for p_rgh, Initial residual = 5.50345e-07, Final residual = 9.95202e-08, No Iterations 2
time step continuity errors : sum local = 9.30822e-08, global = -5.16722e-08, cumulative = -4.77026e-05
ExecutionTime = 15.19 s  ClockTime = 16 s

Courant Number mean: 0.0488413 max: 1.01768
Interface Courant Number mean: 0.00740088 max: 0.684152
deltaT = 0.00164323
Time = 0.0687786

PIMPLE: iteration 1
smoothSolver:  Solving for alpha.water, Initial residual = 0.00349277, Final residual = 5.69875e-09, No Iterations 3
Phase-1 volume fraction = 0.109559  Min(alpha.water) = -7.59509e-31  Max(alpha.water) = 1.00012
MULES: Correcting alpha.water
Phase-1 volume fraction = 0.109559  Min(alpha.water) = -1.21495e-10  Max(alpha.water) = 1.00012
DICPCG:  Solving for p_rgh, Initial residual = 0.010608, Final residual = 0.000453295, No Iterations 2
DICPCG:  Solving for p_rgh, Initial residual = 0.00100054, Final residual = 4.81269e-05, No Iterations 7
DICPCG:  Solving for p_rgh, Initial residual = 0.000181253, Final residual = 8.6703e-06, No Iterations 10
DICPCG:  Solving for p_rgh, Initial residual = 3.11521e-05, Final residual = 1.18251e-06, No Iterations 14
time step continuity errors : sum local = 1.10023e-06, global = -1.20597e-07, cumulative = -4.78232e-05
DICPCG:  Solving for p_rgh, Initial residual = 5.52713e-05, Final residual = 2.34201e-06, No Iterations 15
DICPCG:  Solving for p_rgh, Initial residual = 1.09509e-05, Final residual = 5.03343e-07, No Iterations 17
DICPCG:  Solving for p_rgh, Initial residual = 2.55891e-06, Final residual = 1.20125e-07, No Iterations 12
DICPCG:  Solving for p_rgh, Initial residual = 5.07186e-07, Final residual = 9.01628e-08, No Iterations 2
time step continuity errors : sum local = 8.38454e-08, global = -4.48014e-08, cumulative = -4.7868e-05
ExecutionTime = 15.59 s  ClockTime = 16 s

Courant Number mean: 0.0499845 max: 1.02454
Interface Courant Number mean: 0.00743679 max: 0.715729
deltaT = 0.00164323
Time = 0.0704218

PIMPLE: iteration 1
smoothSolver:  Solving for alpha.water, Initial residual = 0.00356405, Final residual = 6.04582e-09, No Iterations 3
Phase-1 volume fraction = 0.109694  Min(alpha.water) = -4.10444e-31  Max(alpha.water) = 1.00012
MULES: Correcting alpha.water
Phase-1 volume fraction = 0.109694  Min(alpha.water) = -1.246e-10  Max(alpha.water) = 1.00012
DICPCG:  Solving for p_rgh, Initial residual = 0.0123578, Final residual = 0.000576795, No Iterations 2
DICPCG:  Solving for p_rgh, Initial residual = 0.00121087, Final residual = 5.00231e-05, No Iterations 7
DICPCG:  Solving for p_rgh, Initial residual = 0.000182379, Final residual = 7.32806e-06, No Iterations 11
DICPCG:  Solving for p_rgh, Initial residual = 2.92359e-05, Final residual = 1.24084e-06, No Iterations 14
time step continuity errors : sum local = 1.17773e-06, global = -1.02592e-07, cumulative = -4.79706e-05
DICPCG:  Solving for p_rgh, Initial residual = 5.77336e-05, Final residual = 2.43016e-06, No Iterations 15
DICPCG:  Solving for p_rgh, Initial residual = 1.13915e-05, Final residual = 5.27139e-07, No Iterations 17
DICPCG:  Solving for p_rgh, Initial residual = 2.51434e-06, Final residual = 1.21325e-07, No Iterations 12
DICPCG:  Solving for p_rgh, Initial residual = 4.89321e-07, Final residual = 8.55378e-08, No Iterations 2
time step continuity errors : sum local = 8.11295e-08, global = -4.3444e-08, cumulative = -4.8014e-05
ExecutionTime = 16.01 s  ClockTime = 17 s

Courant Number mean: 0.0511477 max: 1.02839
Interface Courant Number mean: 0.00749798 max: 0.689886
deltaT = 0.00155675
Time = 0.0719786

PIMPLE: iteration 1
smoothSolver:  Solving for alpha.water, Initial residual = 0.0034509, Final residual = 4.56743e-09, No Iterations 3
Phase-1 volume fraction = 0.109822  Min(alpha.water) = -2.26106e-31  Max(alpha.water) = 1.00011
MULES: Correcting alpha.water
Phase-1 volume fraction = 0.109822  Min(alpha.water) = -3.83957e-11  Max(alpha.water) = 1.00011
DICPCG:  Solving for p_rgh, Initial residual = 0.0107592, Final residual = 0.000426336, No Iterations 3
DICPCG:  Solving for p_rgh, Initial residual = 0.000915962, Final residual = 3.59091e-05, No Iterations 7
DICPCG:  Solving for p_rgh, Initial residual = 0.000144611, Final residual = 6.17071e-06, No Iterations 11
DICPCG:  Solving for p_rgh, Initial residual = 2.37559e-05, Final residual = 1.09033e-06, No Iterations 13
time step continuity errors : sum local = 9.35145e-07, global = 3.0694e-07, cumulative = -4.77071e-05
DICPCG:  Solving for p_rgh, Initial residual = 5.40239e-05, Final residual = 2.58972e-06, No Iterations 11
DICPCG:  Solving for p_rgh, Initial residual = 1.03838e-05, Final residual = 7.51334e-07, No Iterations 20
DICPCG:  Solving for p_rgh, Initial residual = 2.40138e-06, Final residual = 1.11394e-07, No Iterations 17
DICPCG:  Solving for p_rgh, Initial residual = 5.18122e-07, Final residual = 6.14112e-08, No Iterations 2
time step continuity errors : sum local = 5.26158e-08, global = -2.10061e-08, cumulative = -4.77281e-05
ExecutionTime = 16.41 s  ClockTime = 17 s

Courant Number mean: 0.0494807 max: 0.97862
Interface Courant Number mean: 0.0071407 max: 0.669656
deltaT = 0.00155675
Time = 0.0735353

PIMPLE: iteration 1
smoothSolver:  Solving for alpha.water, Initial residual = 0.00351247, Final residual = 4.75743e-09, No Iterations 3
Phase-1 volume fraction = 0.10995  Min(alpha.water) = -9.49814e-23  Max(alpha.water) = 1.00011
MULES: Correcting alpha.water
Phase-1 volume fraction = 0.10995  Min(alpha.water) = -1.16842e-10  Max(alpha.water) = 1.00011
DICPCG:  Solving for p_rgh, Initial residual = 0.0110299, Final residual = 0.000445297, No Iterations 3
DICPCG:  Solving for p_rgh, Initial residual = 0.000969113, Final residual = 3.87531e-05, No Iterations 7
DICPCG:  Solving for p_rgh, Initial residual = 0.000147834, Final residual = 6.08952e-06, No Iterations 11
DICPCG:  Solving for p_rgh, Initial residual = 2.46757e-05, Final residual = 1.04935e-06, No Iterations 15
time step continuity errors : sum local = 9.00781e-07, global = -4.46565e-08, cumulative = -4.77728e-05
DICPCG:  Solving for p_rgh, Initial residual = 5.87228e-05, Final residual = 2.49607e-06, No Iterations 15
DICPCG:  Solving for p_rgh, Initial residual = 1.10017e-05, Final residual = 4.35233e-07, No Iterations 18
DICPCG:  Solving for p_rgh, Initial residual = 2.35589e-06, Final residual = 1.00755e-07, No Iterations 12
DICPCG:  Solving for p_rgh, Initial residual = 4.76841e-07, Final residual = 7.30567e-08, No Iterations 2
time step continuity errors : sum local = 6.26472e-08, global = -2.95359e-08, cumulative = -4.78023e-05
ExecutionTime = 16.8 s  ClockTime = 17 s

Courant Number mean: 0.0505315 max: 0.981055
Interface Courant Number mean: 0.00714573 max: 0.677747
deltaT = 0.00155675
Time = 0.0750921

PIMPLE: iteration 1
smoothSolver:  Solving for alpha.water, Initial residual = 0.00358321, Final residual = 4.99105e-09, No Iterations 3
Phase-1 volume fraction = 0.110078  Min(alpha.water) = -4.94215e-23  Max(alpha.water) = 1.00011
MULES: Correcting alpha.water
Phase-1 volume fraction = 0.110078  Min(alpha.water) = -4.26687e-11  Max(alpha.water) = 1.00011
DICPCG:  Solving for p_rgh, Initial residual = 0.010357, Final residual = 0.000439174, No Iterations 3
DICPCG:  Solving for p_rgh, Initial residual = 0.000976659, Final residual = 3.92894e-05, No Iterations 7
DICPCG:  Solving for p_rgh, Initial residual = 0.000148413, Final residual = 6.04398e-06, No Iterations 11
DICPCG:  Solving for p_rgh, Initial residual = 2.42602e-05, Final residual = 1.19619e-06, No Iterations 13
time step continuity errors : sum local = 1.0238e-06, global = 4.04486e-08, cumulative = -4.77618e-05
DICPCG:  Solving for p_rgh, Initial residual = 6.38208e-05, Final residual = 2.9342e-06, No Iterations 12
DICPCG:  Solving for p_rgh, Initial residual = 1.17372e-05, Final residual = 8.28623e-07, No Iterations 20
DICPCG:  Solving for p_rgh, Initial residual = 2.77758e-06, Final residual = 1.34787e-07, No Iterations 15
DICPCG:  Solving for p_rgh, Initial residual = 5.89269e-07, Final residual = 8.81308e-08, No Iterations 2
time step continuity errors : sum local = 7.53547e-08, global = -3.36483e-08, cumulative = -4.77955e-05
ExecutionTime = 17.19 s  ClockTime = 18 s

Courant Number mean: 0.0515911 max: 0.9766
Interface Courant Number mean: 0.00708252 max: 0.657303
deltaT = 0.00155675
Time = 0.0766488

PIMPLE: iteration 1
smoothSolver:  Solving for alpha.water, Initial residual = 0.0036456, Final residual = 5.26854e-09, No Iterations 3
Phase-1 volume fraction = 0.110205  Min(alpha.water) = -2.57205e-23  Max(alpha.water) = 1.0001
MULES: Correcting alpha.water
Phase-1 volume fraction = 0.110205  Min(alpha.water) = -2.25951e-11  Max(alpha.water) = 1.0001
DICPCG:  Solving for p_rgh, Initial residual = 0.0101175, Final residual = 0.000443307, No Iterations 3
DICPCG:  Solving for p_rgh, Initial residual = 0.00104928, Final residual = 4.54214e-05, No Iterations 7
DICPCG:  Solving for p_rgh, Initial residual = 0.000153401, Final residual = 7.41694e-06, No Iterations 11
DICPCG:  Solving for p_rgh, Initial residual = 2.65429e-05, Final residual = 1.50367e-06, No Iterations 20
time step continuity errors : sum local = 1.29407e-06, global = 1.0315e-07, cumulative = -4.76923e-05
DICPCG:  Solving for p_rgh, Initial residual = 6.87295e-05, Final residual = 3.27444e-06, No Iterations 11
DICPCG:  Solving for p_rgh, Initial residual = 1.18272e-05, Final residual = 8.25354e-07, No Iterations 20
DICPCG:  Solving for p_rgh, Initial residual = 2.63885e-06, Final residual = 1.2673e-07, No Iterations 17
DICPCG:  Solving for p_rgh, Initial residual = 5.98988e-07, Final residual = 7.44077e-08, No Iterations 2
time step continuity errors : sum local = 6.39707e-08, global = -2.4712e-08, cumulative = -4.77171e-05
ExecutionTime = 17.66 s  ClockTime = 18 s

Courant Number mean: 0.0525796 max: 0.973608
Interface Courant Number mean: 0.00708874 max: 0.711832
deltaT = 0.00155675
Time = 0.0782055

PIMPLE: iteration 1
smoothSolver:  Solving for alpha.water, Initial residual = 0.00367805, Final residual = 5.55536e-09, No Iterations 3
Phase-1 volume fraction = 0.110333  Min(alpha.water) = -1.33466e-23  Max(alpha.water) = 1.0001
MULES: Correcting alpha.water
Phase-1 volume fraction = 0.110333  Min(alpha.water) = -2.52406e-14  Max(alpha.water) = 1.0001
DICPCG:  Solving for p_rgh, Initial residual = 0.0112132, Final residual = 0.000445018, No Iterations 3
DICPCG:  Solving for p_rgh, Initial residual = 0.00107676, Final residual = 4.4386e-05, No Iterations 7
DICPCG:  Solving for p_rgh, Initial residual = 0.000158704, Final residual = 7.17799e-06, No Iterations 11
DICPCG:  Solving for p_rgh, Initial residual = 2.54681e-05, Final residual = 1.39043e-06, No Iterations 20
time step continuity errors : sum local = 1.2271e-06, global = 5.66885e-08, cumulative = -4.76604e-05
DICPCG:  Solving for p_rgh, Initial residual = 6.04978e-05, Final residual = 2.75416e-06, No Iterations 12
DICPCG:  Solving for p_rgh, Initial residual = 1.10476e-05, Final residual = 7.37006e-07, No Iterations 20
DICPCG:  Solving for p_rgh, Initial residual = 2.54433e-06, Final residual = 1.25967e-07, No Iterations 16
DICPCG:  Solving for p_rgh, Initial residual = 5.67457e-07, Final residual = 8.10355e-08, No Iterations 2
time step continuity errors : sum local = 7.14385e-08, global = -3.20759e-08, cumulative = -4.76924e-05
ExecutionTime = 18.13 s  ClockTime = 19 s

Courant Number mean: 0.0534849 max: 0.970518
Interface Courant Number mean: 0.00724546 max: 0.698287
deltaT = 0.00155675
Time = 0.0797623

PIMPLE: iteration 1
smoothSolver:  Solving for alpha.water, Initial residual = 0.00370065, Final residual = 5.84926e-09, No Iterations 3
Phase-1 volume fraction = 0.110461  Min(alpha.water) = -1.13089e-32  Max(alpha.water) = 1.00009
MULES: Correcting alpha.water
Phase-1 volume fraction = 0.110461  Min(alpha.water) = -3.00157e-14  Max(alpha.water) = 1.00009
DICPCG:  Solving for p_rgh, Initial residual = 0.0125401, Final residual = 0.00042139, No Iterations 3
DICPCG:  Solving for p_rgh, Initial residual = 0.00124725, Final residual = 3.44271e-05, No Iterations 8
DICPCG:  Solving for p_rgh, Initial residual = 0.000160495, Final residual = 7.82636e-06, No Iterations 9
DICPCG:  Solving for p_rgh, Initial residual = 2.41558e-05, Final residual = 1.16946e-06, No Iterations 14
time step continuity errors : sum local = 1.05463e-06, global = 4.43232e-07, cumulative = -4.72492e-05
DICPCG:  Solving for p_rgh, Initial residual = 5.57173e-05, Final residual = 2.44628e-06, No Iterations 12
DICPCG:  Solving for p_rgh, Initial residual = 1.03236e-05, Final residual = 6.38624e-07, No Iterations 20
DICPCG:  Solving for p_rgh, Initial residual = 2.35825e-06, Final residual = 1.14133e-07, No Iterations 16
DICPCG:  Solving for p_rgh, Initial residual = 5.24248e-07, Final residual = 7.45485e-08, No Iterations 2
time step continuity errors : sum local = 6.71881e-08, global = -2.55508e-08, cumulative = -4.72748e-05
ExecutionTime = 18.63 s  ClockTime = 19 s

Courant Number mean: 0.0543696 max: 0.973526
Interface Courant Number mean: 0.00742114 max: 0.684211
deltaT = 0.00155675
Time = 0.081319

PIMPLE: iteration 1
smoothSolver:  Solving for alpha.water, Initial residual = 0.00372876, Final residual = 6.03873e-09, No Iterations 3
Phase-1 volume fraction = 0.110588  Min(alpha.water) = -6.18817e-33  Max(alpha.water) = 1.00009
MULES: Correcting alpha.water
Phase-1 volume fraction = 0.110588  Min(alpha.water) = -3.02265e-14  Max(alpha.water) = 1.00009
DICPCG:  Solving for p_rgh, Initial residual = 0.013858, Final residual = 0.000407024, No Iterations 3
DICPCG:  Solving for p_rgh, Initial residual = 0.0013142, Final residual = 4.08008e-05, No Iterations 8
DICPCG:  Solving for p_rgh, Initial residual = 0.000163469, Final residual = 7.64466e-06, No Iterations 9
DICPCG:  Solving for p_rgh, Initial residual = 2.45061e-05, Final residual = 1.27791e-06, No Iterations 20
time step continuity errors : sum local = 1.16563e-06, global = 1.22787e-07, cumulative = -4.7152e-05
DICPCG:  Solving for p_rgh, Initial residual = 5.40728e-05, Final residual = 2.5631e-06, No Iterations 12
DICPCG:  Solving for p_rgh, Initial residual = 1.01753e-05, Final residual = 5.76884e-07, No Iterations 20
DICPCG:  Solving for p_rgh, Initial residual = 2.32342e-06, Final residual = 1.0401e-07, No Iterations 16
DICPCG:  Solving for p_rgh, Initial residual = 5.02894e-07, Final residual = 7.32712e-08, No Iterations 2
time step continuity errors : sum local = 6.67954e-08, global = -3.06662e-08, cumulative = -4.71826e-05
ExecutionTime = 19.05 s  ClockTime = 20 s

Courant Number mean: 0.0552167 max: 0.973065
Interface Courant Number mean: 0.00753827 max: 0.667757
deltaT = 0.00155675
Time = 0.0828758

PIMPLE: iteration 1
smoothSolver:  Solving for alpha.water, Initial residual = 0.00374759, Final residual = 6.03507e-09, No Iterations 3
Phase-1 volume fraction = 0.110716  Min(alpha.water) = -3.38877e-33  Max(alpha.water) = 1.00008
MULES: Correcting alpha.water
Phase-1 volume fraction = 0.110716  Min(alpha.water) = -2.79702e-14  Max(alpha.water) = 1.00008
DICPCG:  Solving for p_rgh, Initial residual = 0.0141383, Final residual = 0.00039452, No Iterations 3
DICPCG:  Solving for p_rgh, Initial residual = 0.00126151, Final residual = 4.27597e-05, No Iterations 8
DICPCG:  Solving for p_rgh, Initial residual = 0.000159718, Final residual = 7.3263e-06, No Iterations 9
DICPCG:  Solving for p_rgh, Initial residual = 2.40477e-05, Final residual = 1.28464e-06, No Iterations 20
time step continuity errors : sum local = 1.16526e-06, global = 1.43703e-07, cumulative = -4.70389e-05
DICPCG:  Solving for p_rgh, Initial residual = 5.37898e-05, Final residual = 2.63556e-06, No Iterations 12
DICPCG:  Solving for p_rgh, Initial residual = 1.01544e-05, Final residual = 5.43871e-07, No Iterations 20
DICPCG:  Solving for p_rgh, Initial residual = 2.29124e-06, Final residual = 1.11257e-07, No Iterations 15
DICPCG:  Solving for p_rgh, Initial residual = 4.85361e-07, Final residual = 7.51443e-08, No Iterations 2
time step continuity errors : sum local = 6.8126e-08, global = -3.13485e-08, cumulative = -4.70703e-05
ExecutionTime = 19.44 s  ClockTime = 20 s

Courant Number mean: 0.0560228 max: 0.974163
Interface Courant Number mean: 0.00765632 max: 0.698646
deltaT = 0.00155675
Time = 0.0844325

PIMPLE: iteration 1
smoothSolver:  Solving for alpha.water, Initial residual = 0.00375614, Final residual = 5.78347e-09, No Iterations 3
Phase-1 volume fraction = 0.110843  Min(alpha.water) = -1.85828e-33  Max(alpha.water) = 1.00008
MULES: Correcting alpha.water
Phase-1 volume fraction = 0.110843  Min(alpha.water) = -2.46076e-14  Max(alpha.water) = 1.00008
DICPCG:  Solving for p_rgh, Initial residual = 0.0131554, Final residual = 0.000357432, No Iterations 3
DICPCG:  Solving for p_rgh, Initial residual = 0.00112061, Final residual = 3.97075e-05, No Iterations 8
DICPCG:  Solving for p_rgh, Initial residual = 0.000144208, Final residual = 6.70302e-06, No Iterations 10
DICPCG:  Solving for p_rgh, Initial residual = 2.19707e-05, Final residual = 1.06459e-06, No Iterations 13
time step continuity errors : sum local = 9.53601e-07, global = 4.21286e-07, cumulative = -4.6649e-05
DICPCG:  Solving for p_rgh, Initial residual = 5.42344e-05, Final residual = 2.54836e-06, No Iterations 12
DICPCG:  Solving for p_rgh, Initial residual = 1.02635e-05, Final residual = 4.78894e-07, No Iterations 17
DICPCG:  Solving for p_rgh, Initial residual = 2.18603e-06, Final residual = 1.25674e-07, No Iterations 20
DICPCG:  Solving for p_rgh, Initial residual = 5.48749e-07, Final residual = 7.64213e-08, No Iterations 2
time step continuity errors : sum local = 6.84051e-08, global = -8.46224e-09, cumulative = -4.66575e-05
ExecutionTime = 19.83 s  ClockTime = 20 s

Courant Number mean: 0.0568022 max: 0.975311
Interface Courant Number mean: 0.00800753 max: 0.688717
deltaT = 0.00155675
Time = 0.0859893

PIMPLE: iteration 1
smoothSolver:  Solving for alpha.water, Initial residual = 0.00377584, Final residual = 5.3147e-09, No Iterations 3
Phase-1 volume fraction = 0.110971  Min(alpha.water) = -1.02014e-33  Max(alpha.water) = 1.00007
MULES: Correcting alpha.water
Phase-1 volume fraction = 0.110971  Min(alpha.water) = -2.59559e-14  Max(alpha.water) = 1.00007
DICPCG:  Solving for p_rgh, Initial residual = 0.0120853, Final residual = 0.000321189, No Iterations 3
DICPCG:  Solving for p_rgh, Initial residual = 0.00101365, Final residual = 3.35525e-05, No Iterations 8
DICPCG:  Solving for p_rgh, Initial residual = 0.00013701, Final residual = 6.03088e-06, No Iterations 11
DICPCG:  Solving for p_rgh, Initial residual = 2.16034e-05, Final residual = 1.07944e-06, No Iterations 16
time step continuity errors : sum local = 9.55756e-07, global = 3.35013e-07, cumulative = -4.63225e-05
DICPCG:  Solving for p_rgh, Initial residual = 5.47818e-05, Final residual = 2.48559e-06, No Iterations 12
DICPCG:  Solving for p_rgh, Initial residual = 1.06294e-05, Final residual = 4.92859e-07, No Iterations 16
DICPCG:  Solving for p_rgh, Initial residual = 2.27953e-06, Final residual = 1.0885e-07, No Iterations 20
DICPCG:  Solving for p_rgh, Initial residual = 5.84129e-07, Final residual = 7.90877e-08, No Iterations 2
time step continuity errors : sum local = 6.99588e-08, global = -2.36009e-09, cumulative = -4.63248e-05
ExecutionTime = 20.26 s  ClockTime = 21 s

Courant Number mean: 0.0575503 max: 0.967437
Interface Courant Number mean: 0.00812929 max: 0.676287
deltaT = 0.00155675
Time = 0.087546

PIMPLE: iteration 1
smoothSolver:  Solving for alpha.water, Initial residual = 0.00380496, Final residual = 4.71138e-09, No Iterations 3
Phase-1 volume fraction = 0.111098  Min(alpha.water) = -5.60411e-34  Max(alpha.water) = 1.00007
MULES: Correcting alpha.water
Phase-1 volume fraction = 0.111098  Min(alpha.water) = -3.32284e-14  Max(alpha.water) = 1.00007
DICPCG:  Solving for p_rgh, Initial residual = 0.0107729, Final residual = 0.000285971, No Iterations 3
DICPCG:  Solving for p_rgh, Initial residual = 0.000901582, Final residual = 2.65119e-05, No Iterations 8
DICPCG:  Solving for p_rgh, Initial residual = 0.000134666, Final residual = 6.62764e-06, No Iterations 9
DICPCG:  Solving for p_rgh, Initial residual = 2.416e-05, Final residual = 1.17947e-06, No Iterations 14
time step continuity errors : sum local = 1.03432e-06, global = 4.96262e-07, cumulative = -4.58286e-05
DICPCG:  Solving for p_rgh, Initial residual = 5.62922e-05, Final residual = 2.73894e-06, No Iterations 11
DICPCG:  Solving for p_rgh, Initial residual = 1.0989e-05, Final residual = 5.48466e-07, No Iterations 15
DICPCG:  Solving for p_rgh, Initial residual = 2.35789e-06, Final residual = 1.03575e-07, No Iterations 20
DICPCG:  Solving for p_rgh, Initial residual = 6.34131e-07, Final residual = 8.28378e-08, No Iterations 2
time step continuity errors : sum local = 7.26092e-08, global = 8.16588e-10, cumulative = -4.58277e-05
ExecutionTime = 20.67 s  ClockTime = 21 s

Courant Number mean: 0.0582746 max: 0.962029
Interface Courant Number mean: 0.00825327 max: 0.660506
deltaT = 0.00155675
Time = 0.0891028

PIMPLE: iteration 1
smoothSolver:  Solving for alpha.water, Initial residual = 0.00384764, Final residual = 4.31321e-09, No Iterations 3
Phase-1 volume fraction = 0.111226  Min(alpha.water) = -3.07988e-34  Max(alpha.water) = 1.00006
MULES: Correcting alpha.water
Phase-1 volume fraction = 0.111226  Min(alpha.water) = -4.2439e-14  Max(alpha.water) = 1.00006
DICPCG:  Solving for p_rgh, Initial residual = 0.0111321, Final residual = 0.000486937, No Iterations 2
DICPCG:  Solving for p_rgh, Initial residual = 0.00102693, Final residual = 3.09578e-05, No Iterations 8
DICPCG:  Solving for p_rgh, Initial residual = 0.000149589, Final residual = 6.77187e-06, No Iterations 8
DICPCG:  Solving for p_rgh, Initial residual = 2.24452e-05, Final residual = 1.0392e-06, No Iterations 13
time step continuity errors : sum local = 9.1813e-07, global = 3.22324e-07, cumulative = -4.55054e-05
DICPCG:  Solving for p_rgh, Initial residual = 5.46775e-05, Final residual = 2.169e-06, No Iterations 12
DICPCG:  Solving for p_rgh, Initial residual = 1.04031e-05, Final residual = 4.5198e-07, No Iterations 16
DICPCG:  Solving for p_rgh, Initial residual = 2.17613e-06, Final residual = 1.07505e-07, No Iterations 19
DICPCG:  Solving for p_rgh, Initial residual = 5.61914e-07, Final residual = 7.61516e-08, No Iterations 2
time step continuity errors : sum local = 6.72651e-08, global = -8.8895e-09, cumulative = -4.55143e-05
ExecutionTime = 21.07 s  ClockTime = 22 s

Courant Number mean: 0.0590001 max: 0.957383
Interface Courant Number mean: 0.00827182 max: 0.641388
deltaT = 0.00155675
Time = 0.0906595

PIMPLE: iteration 1
smoothSolver:  Solving for alpha.water, Initial residual = 0.00389408, Final residual = 4.22536e-09, No Iterations 3
Phase-1 volume fraction = 0.111353  Min(alpha.water) = -1.29211e-28  Max(alpha.water) = 1.00006
MULES: Correcting alpha.water
Phase-1 volume fraction = 0.111353  Min(alpha.water) = -5.361e-14  Max(alpha.water) = 1.00006
DICPCG:  Solving for p_rgh, Initial residual = 0.0104596, Final residual = 0.000348084, No Iterations 2
DICPCG:  Solving for p_rgh, Initial residual = 0.000902353, Final residual = 3.0066e-05, No Iterations 8
DICPCG:  Solving for p_rgh, Initial residual = 0.000137318, Final residual = 6.49436e-06, No Iterations 7
DICPCG:  Solving for p_rgh, Initial residual = 2.22306e-05, Final residual = 1.07149e-06, No Iterations 12
time step continuity errors : sum local = 9.50058e-07, global = 8.2361e-08, cumulative = -4.54319e-05
DICPCG:  Solving for p_rgh, Initial residual = 5.77098e-05, Final residual = 2.48015e-06, No Iterations 12
[...]
DICPCG:  Solving for p_rgh, Initial residual = 8.17375e-05, Final residual = 3.5289e-06, No Iterations 13
DICPCG:  Solving for p_rgh, Initial residual = 1.99531e-05, Final residual = 8.70271e-07, No Iterations 14
time step continuity errors : sum local = 4.6738e-07, global = 1.9287e-07, cumulative = 1.2681e-05
DICPCG:  Solving for p_rgh, Initial residual = 3.52703e-05, Final residual = 1.69051e-06, No Iterations 19
DICPCG:  Solving for p_rgh, Initial residual = 1.3314e-05, Final residual = 5.77643e-07, No Iterations 14
DICPCG:  Solving for p_rgh, Initial residual = 2.53814e-06, Final residual = 1.21612e-07, No Iterations 18
DICPCG:  Solving for p_rgh, Initial residual = 6.78016e-07, Final residual = 8.29899e-08, No Iterations 3
time step continuity errors : sum local = 4.46229e-08, global = -1.2788e-08, cumulative = 1.26682e-05
ExecutionTime = 340.88 s  ClockTime = 344 s

Courant Number mean: 0.0471494 max: 0.997488
Interface Courant Number mean: 0.00890205 max: 0.435132
deltaT = 0.00103473
Time = 0.988618

PIMPLE: iteration 1
smoothSolver:  Solving for alpha.water, Initial residual = 0.00134567, Final residual = 1.21649e-10, No Iterations 3
Phase-1 volume fraction = 0.171776  Min(alpha.water) = -4.03636e-25  Max(alpha.water) = 1.00001
MULES: Correcting alpha.water
Phase-1 volume fraction = 0.171776  Min(alpha.water) = -2.79777e-13  Max(alpha.water) = 1.00001
DICPCG:  Solving for p_rgh, Initial residual = 0.00427061, Final residual = 0.000164899, No Iterations 2
DICPCG:  Solving for p_rgh, Initial residual = 0.000383286, Final residual = 1.61658e-05, No Iterations 6
DICPCG:  Solving for p_rgh, Initial residual = 7.95944e-05, Final residual = 3.95527e-06, No Iterations 10
DICPCG:  Solving for p_rgh, Initial residual = 1.90498e-05, Final residual = 9.2248e-07, No Iterations 15
time step continuity errors : sum local = 4.94243e-07, global = 1.53368e-07, cumulative = 1.28216e-05
DICPCG:  Solving for p_rgh, Initial residual = 3.54367e-05, Final residual = 1.66599e-06, No Iterations 18
DICPCG:  Solving for p_rgh, Initial residual = 1.30509e-05, Final residual = 5.69938e-07, No Iterations 14
DICPCG:  Solving for p_rgh, Initial residual = 2.5329e-06, Final residual = 1.03735e-07, No Iterations 19
DICPCG:  Solving for p_rgh, Initial residual = 6.9445e-07, Final residual = 7.74349e-08, No Iterations 3
time step continuity errors : sum local = 4.15347e-08, global = -1.09949e-08, cumulative = 1.28106e-05
ExecutionTime = 341.29 s  ClockTime = 345 s

Courant Number mean: 0.0472435 max: 1.00498
Interface Courant Number mean: 0.00893622 max: 0.43951
deltaT = 0.00103473
Time = 0.989653

PIMPLE: iteration 1
smoothSolver:  Solving for alpha.water, Initial residual = 0.00135045, Final residual = 1.18589e-10, No Iterations 3
Phase-1 volume fraction = 0.17186  Min(alpha.water) = -3.48381e-25  Max(alpha.water) = 1.00001
MULES: Correcting alpha.water
Phase-1 volume fraction = 0.17186  Min(alpha.water) = -3.12669e-13  Max(alpha.water) = 1.00001
DICPCG:  Solving for p_rgh, Initial residual = 0.00424279, Final residual = 0.000160641, No Iterations 2
DICPCG:  Solving for p_rgh, Initial residual = 0.000379972, Final residual = 1.55983e-05, No Iterations 6
DICPCG:  Solving for p_rgh, Initial residual = 7.94597e-05, Final residual = 3.61863e-06, No Iterations 12
DICPCG:  Solving for p_rgh, Initial residual = 1.92009e-05, Final residual = 8.96576e-07, No Iterations 14
time step continuity errors : sum local = 4.79862e-07, global = 2.11752e-07, cumulative = 1.30223e-05
DICPCG:  Solving for p_rgh, Initial residual = 3.50853e-05, Final residual = 1.73105e-06, No Iterations 18
DICPCG:  Solving for p_rgh, Initial residual = 1.27877e-05, Final residual = 5.71803e-07, No Iterations 14
DICPCG:  Solving for p_rgh, Initial residual = 2.52098e-06, Final residual = 1.03201e-07, No Iterations 19
DICPCG:  Solving for p_rgh, Initial residual = 6.95744e-07, Final residual = 7.5383e-08, No Iterations 3
time step continuity errors : sum local = 4.03935e-08, global = -1.08038e-08, cumulative = 1.30115e-05
ExecutionTime = 341.68 s  ClockTime = 345 s

Courant Number mean: 0.0473345 max: 1.01011
Interface Courant Number mean: 0.00895132 max: 0.444813
deltaT = 0.00103473
Time = 0.990687

PIMPLE: iteration 1
smoothSolver:  Solving for alpha.water, Initial residual = 0.00135416, Final residual = 1.16072e-10, No Iterations 3
Phase-1 volume fraction = 0.171944  Min(alpha.water) = -3.00706e-25  Max(alpha.water) = 1.00001
MULES: Correcting alpha.water
Phase-1 volume fraction = 0.171944  Min(alpha.water) = -3.20819e-13  Max(alpha.water) = 1.00001
DICPCG:  Solving for p_rgh, Initial residual = 0.00434601, Final residual = 0.000162436, No Iterations 2
DICPCG:  Solving for p_rgh, Initial residual = 0.000394801, Final residual = 1.62514e-05, No Iterations 6
DICPCG:  Solving for p_rgh, Initial residual = 8.3618e-05, Final residual = 4.16346e-06, No Iterations 11
DICPCG:  Solving for p_rgh, Initial residual = 2.06381e-05, Final residual = 9.64422e-07, No Iterations 14
time step continuity errors : sum local = 5.15682e-07, global = 2.16169e-07, cumulative = 1.32277e-05
DICPCG:  Solving for p_rgh, Initial residual = 3.56571e-05, Final residual = 1.66062e-06, No Iterations 18
DICPCG:  Solving for p_rgh, Initial residual = 1.27816e-05, Final residual = 5.53684e-07, No Iterations 14
DICPCG:  Solving for p_rgh, Initial residual = 2.49588e-06, Final residual = 1.20599e-07, No Iterations 18
DICPCG:  Solving for p_rgh, Initial residual = 7.05325e-07, Final residual = 7.97027e-08, No Iterations 3
time step continuity errors : sum local = 4.26634e-08, global = -1.27231e-08, cumulative = 1.3215e-05
ExecutionTime = 342.07 s  ClockTime = 346 s

Courant Number mean: 0.0474268 max: 1.01634
Interface Courant Number mean: 0.00895149 max: 0.449432
deltaT = 0.00103473
Time = 0.991722

PIMPLE: iteration 1
smoothSolver:  Solving for alpha.water, Initial residual = 0.00135817, Final residual = 1.17474e-10, No Iterations 3
Phase-1 volume fraction = 0.172028  Min(alpha.water) = -2.5964e-25  Max(alpha.water) = 1.00001
MULES: Correcting alpha.water
Phase-1 volume fraction = 0.172028  Min(alpha.water) = -3.30029e-13  Max(alpha.water) = 1.00001
DICPCG:  Solving for p_rgh, Initial residual = 0.00434395, Final residual = 0.000159499, No Iterations 2
DICPCG:  Solving for p_rgh, Initial residual = 0.000399461, Final residual = 1.71225e-05, No Iterations 6
DICPCG:  Solving for p_rgh, Initial residual = 8.54495e-05, Final residual = 4.16831e-06, No Iterations 10
DICPCG:  Solving for p_rgh, Initial residual = 2.09212e-05, Final residual = 9.35424e-07, No Iterations 14
time step continuity errors : sum local = 5.00017e-07, global = 1.98585e-07, cumulative = 1.34135e-05
DICPCG:  Solving for p_rgh, Initial residual = 3.60978e-05, Final residual = 1.80325e-06, No Iterations 17
DICPCG:  Solving for p_rgh, Initial residual = 1.27425e-05, Final residual = 6.19313e-07, No Iterations 14
DICPCG:  Solving for p_rgh, Initial residual = 2.56076e-06, Final residual = 1.0373e-07, No Iterations 19
DICPCG:  Solving for p_rgh, Initial residual = 7.20177e-07, Final residual = 7.36037e-08, No Iterations 3
time step continuity errors : sum local = 3.93844e-08, global = -9.38437e-09, cumulative = 1.34042e-05
ExecutionTime = 342.51 s  ClockTime = 346 s

Courant Number mean: 0.0475184 max: 1.02477
Interface Courant Number mean: 0.00893037 max: 0.442915
deltaT = 0.00103473
Time = 0.992757

PIMPLE: iteration 1
smoothSolver:  Solving for alpha.water, Initial residual = 0.0013628, Final residual = 1.15606e-10, No Iterations 3
Phase-1 volume fraction = 0.172112  Min(alpha.water) = -2.24308e-25  Max(alpha.water) = 1.00001
MULES: Correcting alpha.water
Phase-1 volume fraction = 0.172112  Min(alpha.water) = -3.42189e-13  Max(alpha.water) = 1.00001
DICPCG:  Solving for p_rgh, Initial residual = 0.00443707, Final residual = 0.000150557, No Iterations 2
DICPCG:  Solving for p_rgh, Initial residual = 0.000398788, Final residual = 1.68922e-05, No Iterations 6
DICPCG:  Solving for p_rgh, Initial residual = 8.67731e-05, Final residual = 4.33332e-06, No Iterations 9
DICPCG:  Solving for p_rgh, Initial residual = 2.12632e-05, Final residual = 8.94011e-07, No Iterations 14
time step continuity errors : sum local = 4.77434e-07, global = 1.91968e-07, cumulative = 1.35961e-05
DICPCG:  Solving for p_rgh, Initial residual = 3.70572e-05, Final residual = 1.62711e-06, No Iterations 18
DICPCG:  Solving for p_rgh, Initial residual = 1.27793e-05, Final residual = 5.52659e-07, No Iterations 14
DICPCG:  Solving for p_rgh, Initial residual = 2.49995e-06, Final residual = 1.1563e-07, No Iterations 18
DICPCG:  Solving for p_rgh, Initial residual = 6.99482e-07, Final residual = 9.94864e-08, No Iterations 2
time step continuity errors : sum local = 5.31838e-08, global = -1.26077e-08, cumulative = 1.35835e-05
ExecutionTime = 342.93 s  ClockTime = 347 s

Courant Number mean: 0.0476085 max: 1.03964
Interface Courant Number mean: 0.00895092 max: 0.447672
deltaT = 0.00103473
Time = 0.993792

PIMPLE: iteration 1
smoothSolver:  Solving for alpha.water, Initial residual = 0.00136571, Final residual = 1.1254e-10, No Iterations 3
Phase-1 volume fraction = 0.172196  Min(alpha.water) = -1.93954e-25  Max(alpha.water) = 1.00001
MULES: Correcting alpha.water
Phase-1 volume fraction = 0.172196  Min(alpha.water) = -3.55532e-13  Max(alpha.water) = 1.00001
DICPCG:  Solving for p_rgh, Initial residual = 0.00438821, Final residual = 0.000150194, No Iterations 2
DICPCG:  Solving for p_rgh, Initial residual = 0.000395328, Final residual = 1.66035e-05, No Iterations 6
DICPCG:  Solving for p_rgh, Initial residual = 8.65476e-05, Final residual = 4.24633e-06, No Iterations 9
DICPCG:  Solving for p_rgh, Initial residual = 2.10644e-05, Final residual = 8.98723e-07, No Iterations 14
time step continuity errors : sum local = 4.79182e-07, global = 1.96709e-07, cumulative = 1.37802e-05
DICPCG:  Solving for p_rgh, Initial residual = 3.68924e-05, Final residual = 1.79127e-06, No Iterations 17
DICPCG:  Solving for p_rgh, Initial residual = 1.26637e-05, Final residual = 5.69382e-07, No Iterations 14
DICPCG:  Solving for p_rgh, Initial residual = 2.54253e-06, Final residual = 1.24543e-07, No Iterations 18
DICPCG:  Solving for p_rgh, Initial residual = 7.19756e-07, Final residual = 7.40188e-08, No Iterations 3
time step continuity errors : sum local = 3.95058e-08, global = -1.02709e-08, cumulative = 1.37699e-05
ExecutionTime = 343.34 s  ClockTime = 347 s

Courant Number mean: 0.0477014 max: 1.05373
Interface Courant Number mean: 0.0089984 max: 0.45156
deltaT = 0.00103473
Time = 0.994826

PIMPLE: iteration 1
smoothSolver:  Solving for alpha.water, Initial residual = 0.00136718, Final residual = 1.16249e-10, No Iterations 3
Phase-1 volume fraction = 0.17228  Min(alpha.water) = -1.80606e-25  Max(alpha.water) = 1.00001
MULES: Correcting alpha.water
Phase-1 volume fraction = 0.17228  Min(alpha.water) = -3.68516e-13  Max(alpha.water) = 1.00001
DICPCG:  Solving for p_rgh, Initial residual = 0.00428463, Final residual = 0.000151043, No Iterations 2
DICPCG:  Solving for p_rgh, Initial residual = 0.000399312, Final residual = 1.57742e-05, No Iterations 6
DICPCG:  Solving for p_rgh, Initial residual = 8.66824e-05, Final residual = 4.28016e-06, No Iterations 9
DICPCG:  Solving for p_rgh, Initial residual = 2.09351e-05, Final residual = 9.04073e-07, No Iterations 14
time step continuity errors : sum local = 4.81296e-07, global = 2.03315e-07, cumulative = 1.39733e-05
DICPCG:  Solving for p_rgh, Initial residual = 3.66446e-05, Final residual = 1.7385e-06, No Iterations 17
DICPCG:  Solving for p_rgh, Initial residual = 1.23848e-05, Final residual = 5.72097e-07, No Iterations 14
DICPCG:  Solving for p_rgh, Initial residual = 2.47601e-06, Final residual = 9.52447e-08, No Iterations 19
DICPCG:  Solving for p_rgh, Initial residual = 6.77188e-07, Final residual = 9.64872e-08, No Iterations 2
time step continuity errors : sum local = 5.14178e-08, global = -9.46794e-09, cumulative = 1.39638e-05
ExecutionTime = 343.73 s  ClockTime = 347 s

Courant Number mean: 0.0477965 max: 1.06504
Interface Courant Number mean: 0.00899661 max: 0.456086
deltaT = 0.00103473
Time = 0.995861

PIMPLE: iteration 1
smoothSolver:  Solving for alpha.water, Initial residual = 0.00137008, Final residual = 1.18548e-10, No Iterations 3
Phase-1 volume fraction = 0.172364  Min(alpha.water) = -1.72759e-25  Max(alpha.water) = 1.00001
MULES: Correcting alpha.water
Phase-1 volume fraction = 0.172364  Min(alpha.water) = -3.80592e-13  Max(alpha.water) = 1.00001
DICPCG:  Solving for p_rgh, Initial residual = 0.0043446, Final residual = 0.000180791, No Iterations 2
DICPCG:  Solving for p_rgh, Initial residual = 0.000416549, Final residual = 1.72912e-05, No Iterations 6
DICPCG:  Solving for p_rgh, Initial residual = 9.11448e-05, Final residual = 4.53975e-06, No Iterations 9
DICPCG:  Solving for p_rgh, Initial residual = 2.10446e-05, Final residual = 1.04604e-06, No Iterations 13
time step continuity errors : sum local = 5.56704e-07, global = 2.41505e-07, cumulative = 1.42053e-05
DICPCG:  Solving for p_rgh, Initial residual = 3.64811e-05, Final residual = 1.6683e-06, No Iterations 17
DICPCG:  Solving for p_rgh, Initial residual = 1.20851e-05, Final residual = 5.3533e-07, No Iterations 14
DICPCG:  Solving for p_rgh, Initial residual = 2.37094e-06, Final residual = 1.15383e-07, No Iterations 18
DICPCG:  Solving for p_rgh, Initial residual = 6.58785e-07, Final residual = 9.52773e-08, No Iterations 2
time step continuity errors : sum local = 5.07552e-08, global = -1.05858e-08, cumulative = 1.41947e-05
ExecutionTime = 344.12 s  ClockTime = 348 s

Courant Number mean: 0.0478912 max: 1.07957
Interface Courant Number mean: 0.00899878 max: 0.459484
deltaT = 0.00103473
Time = 0.996896

PIMPLE: iteration 1
smoothSolver:  Solving for alpha.water, Initial residual = 0.00137437, Final residual = 1.1953e-10, No Iterations 3
Phase-1 volume fraction = 0.172448  Min(alpha.water) = -1.66013e-25  Max(alpha.water) = 1
MULES: Correcting alpha.water
Phase-1 volume fraction = 0.172448  Min(alpha.water) = -3.90499e-13  Max(alpha.water) = 1
DICPCG:  Solving for p_rgh, Initial residual = 0.00440978, Final residual = 0.000182921, No Iterations 2
DICPCG:  Solving for p_rgh, Initial residual = 0.000402586, Final residual = 1.85685e-05, No Iterations 6
DICPCG:  Solving for p_rgh, Initial residual = 8.77466e-05, Final residual = 4.13694e-06, No Iterations 9
DICPCG:  Solving for p_rgh, Initial residual = 1.97905e-05, Final residual = 9.76051e-07, No Iterations 13
time step continuity errors : sum local = 5.19042e-07, global = 2.26668e-07, cumulative = 1.44214e-05
DICPCG:  Solving for p_rgh, Initial residual = 3.67737e-05, Final residual = 1.7827e-06, No Iterations 16
DICPCG:  Solving for p_rgh, Initial residual = 1.19186e-05, Final residual = 5.68551e-07, No Iterations 14
DICPCG:  Solving for p_rgh, Initial residual = 2.38114e-06, Final residual = 8.75835e-08, No Iterations 19
DICPCG:  Solving for p_rgh, Initial residual = 6.36322e-07, Final residual = 8.74501e-08, No Iterations 2
time step continuity errors : sum local = 4.65501e-08, global = -7.7573e-09, cumulative = 1.44136e-05
ExecutionTime = 344.51 s  ClockTime = 348 s

Courant Number mean: 0.0479831 max: 1.09255
Interface Courant Number mean: 0.00903745 max: 0.462209
deltaT = 0.00103473
Time = 0.997931

PIMPLE: iteration 1
smoothSolver:  Solving for alpha.water, Initial residual = 0.0013802, Final residual = 1.20168e-10, No Iterations 3
Phase-1 volume fraction = 0.172532  Min(alpha.water) = -1.09368e-25  Max(alpha.water) = 1
MULES: Correcting alpha.water
Phase-1 volume fraction = 0.172532  Min(alpha.water) = -3.98747e-13  Max(alpha.water) = 1
DICPCG:  Solving for p_rgh, Initial residual = 0.00439545, Final residual = 0.000203296, No Iterations 2
DICPCG:  Solving for p_rgh, Initial residual = 0.000411029, Final residual = 1.73754e-05, No Iterations 7
DICPCG:  Solving for p_rgh, Initial residual = 8.69463e-05, Final residual = 3.93152e-06, No Iterations 9
DICPCG:  Solving for p_rgh, Initial residual = 1.85523e-05, Final residual = 8.54158e-07, No Iterations 13
time step continuity errors : sum local = 4.53606e-07, global = 2.02398e-07, cumulative = 1.4616e-05
DICPCG:  Solving for p_rgh, Initial residual = 3.6801e-05, Final residual = 1.81997e-06, No Iterations 16
DICPCG:  Solving for p_rgh, Initial residual = 1.18052e-05, Final residual = 5.81282e-07, No Iterations 14
DICPCG:  Solving for p_rgh, Initial residual = 2.33907e-06, Final residual = 1.16391e-07, No Iterations 18
DICPCG:  Solving for p_rgh, Initial residual = 6.37065e-07, Final residual = 9.45683e-08, No Iterations 2
time step continuity errors : sum local = 5.02726e-08, global = -9.02979e-09, cumulative = 1.4607e-05
ExecutionTime = 344.9 s  ClockTime = 348 s

Courant Number mean: 0.0480746 max: 1.09953
Interface Courant Number mean: 0.00905631 max: 0.451486
deltaT = 0.00103473
Time = 0.998965

PIMPLE: iteration 1
smoothSolver:  Solving for alpha.water, Initial residual = 0.00138448, Final residual = 1.18756e-10, No Iterations 3
Phase-1 volume fraction = 0.172616  Min(alpha.water) = -9.49684e-26  Max(alpha.water) = 1
MULES: Correcting alpha.water
Phase-1 volume fraction = 0.172616  Min(alpha.water) = -4.08735e-13  Max(alpha.water) = 1
DICPCG:  Solving for p_rgh, Initial residual = 0.00441454, Final residual = 0.000210727, No Iterations 2
DICPCG:  Solving for p_rgh, Initial residual = 0.000417552, Final residual = 1.95465e-05, No Iterations 7
DICPCG:  Solving for p_rgh, Initial residual = 8.86e-05, Final residual = 3.86882e-06, No Iterations 9
DICPCG:  Solving for p_rgh, Initial residual = 1.85323e-05, Final residual = 8.89035e-07, No Iterations 13
time step continuity errors : sum local = 4.71362e-07, global = 1.85932e-07, cumulative = 1.47929e-05
DICPCG:  Solving for p_rgh, Initial residual = 3.6978e-05, Final residual = 1.72953e-06, No Iterations 16
DICPCG:  Solving for p_rgh, Initial residual = 1.15431e-05, Final residual = 5.69983e-07, No Iterations 14
DICPCG:  Solving for p_rgh, Initial residual = 2.29886e-06, Final residual = 8.35014e-08, No Iterations 19
DICPCG:  Solving for p_rgh, Initial residual = 6.07345e-07, Final residual = 8.6299e-08, No Iterations 2
time step continuity errors : sum local = 4.58003e-08, global = -7.43227e-09, cumulative = 1.47855e-05
ExecutionTime = 345.3 s  ClockTime = 349 s

Courant Number mean: 0.0481655 max: 1.07601
Interface Courant Number mean: 0.00909283 max: 0.454783
deltaT = 0.00103473
Time = 1

PIMPLE: iteration 1
smoothSolver:  Solving for alpha.water, Initial residual = 0.00138824, Final residual = 1.17344e-10, No Iterations 3
Phase-1 volume fraction = 0.172699  Min(alpha.water) = -8.25267e-26  Max(alpha.water) = 1
MULES: Correcting alpha.water
Phase-1 volume fraction = 0.172699  Min(alpha.water) = -4.19142e-13  Max(alpha.water) = 1
DICPCG:  Solving for p_rgh, Initial residual = 0.00428417, Final residual = 0.000195983, No Iterations 2
DICPCG:  Solving for p_rgh, Initial residual = 0.000402855, Final residual = 1.79849e-05, No Iterations 7
DICPCG:  Solving for p_rgh, Initial residual = 8.43842e-05, Final residual = 3.76924e-06, No Iterations 9
DICPCG:  Solving for p_rgh, Initial residual = 1.76513e-05, Final residual = 8.26893e-07, No Iterations 14
time step continuity errors : sum local = 4.37547e-07, global = 1.67245e-07, cumulative = 1.49527e-05
DICPCG:  Solving for p_rgh, Initial residual = 3.70395e-05, Final residual = 1.6753e-06, No Iterations 16
DICPCG:  Solving for p_rgh, Initial residual = 1.14988e-05, Final residual = 5.57153e-07, No Iterations 14
DICPCG:  Solving for p_rgh, Initial residual = 2.2916e-06, Final residual = 1.14364e-07, No Iterations 18
DICPCG:  Solving for p_rgh, Initial residual = 6.23188e-07, Final residual = 9.47139e-08, No Iterations 2
time step continuity errors : sum local = 5.01664e-08, global = -8.73632e-09, cumulative = 1.4944e-05
ExecutionTime = 346.36 s  ClockTime = 350 s

End

Finalising parallel run
