/*---------------------------------------------------------------------------*\
  =========                 |
  \\      /  F ield         | OpenFOAM: The Open Source CFD Toolbox
   \\    /   O peration     | Website:  https://openfoam.org
    \\  /    A nd           | Version:  7
     \\/     M anipulation  |
\*---------------------------------------------------------------------------*/
Build  : 7-3bcbaf946ae9
Exec   : interFoam -parallel
Date   : Dec 30 2022
Time   : 23:48:46
Host   : "nisan-Satellite-A505"
PID    : 20377
I/O    : uncollated
Case   : /home/nisan/OpenFOAM/nisan-7/run/Flujo_Multifasico
nProcs : 2
Slaves : 1("nisan-Satellite-A505.20378")
Pstream initialized with:
    floatTransfer      : 0
    nProcsSimpleSum    : 0
    commsType          : nonBlocking
    polling iterations : 0
sigFpe : Enabling floating point exception trapping (FOAM_SIGFPE).
fileModificationChecking : Monitoring run-time modified files using timeStampMaster (fileModificationSkew 10)
allowSystemOperations : Allowing user-supplied system call operations

// * * * * * * * * * * * * * * * * * * * * * * * * * * * * * * * * * * * * * //
Create time

Create mesh for time = 0


PIMPLE: No convergence criteria found


PIMPLE: Operating solver in transient mode with 1 outer corrector
PIMPLE: Operating solver in PISO mode


Reading field p_rgh

Reading field U

Reading/calculating face flux field phi

Reading transportProperties

Selecting incompressible transport model Newtonian
Selecting incompressible transport model Newtonian
Selecting turbulence model type laminar
Selecting laminar stress model Stokes

Reading g

Reading hRef
Calculating field g.h

No MRF models present

No finite volume options present
GAMG:  Solving for pcorr, Initial residual = 1, Final residual = 8.54243e-06, No Iterations 19
GAMG:  Solving for pcorr, Initial residual = 0.0342543, Final residual = 6.81254e-06, No Iterations 8
GAMG:  Solving for pcorr, Initial residual = 0.000824307, Final residual = 8.01343e-06, No Iterations 3
GAMG:  Solving for pcorr, Initial residual = 4.09201e-05, Final residual = 5.46962e-06, No Iterations 1
time step continuity errors : sum local = 1.58058e-08, global = -8.07736e-09, cumulative = -8.07736e-09
Courant Number mean: 0.00153967 max: 0.0752155

Starting time loop

Courant Number mean: 0.00153967 max: 0.0752155
Interface Courant Number mean: 0 max: 0
deltaT = 0.00119048
Time = 0.00119048

smoothSolver:  Solving for alpha.water, Initial residual = 4.64457e-05, Final residual = 2.63806e-09, No Iterations 1
Phase-1 volume fraction = 0.112  Min(alpha.water) = 0  Max(alpha.water) = 1
MULES: Correcting alpha.water
Phase-1 volume fraction = 0.112  Min(alpha.water) = -2.36104e-16  Max(alpha.water) = 1
GAMG:  Solving for p_rgh, Initial residual = 1, Final residual = 0.00815393, No Iterations 2
GAMG:  Solving for p_rgh, Initial residual = 0.0153571, Final residual = 8.65009e-05, No Iterations 4
GAMG:  Solving for p_rgh, Initial residual = 0.00134509, Final residual = 9.37304e-06, No Iterations 4
GAMG:  Solving for p_rgh, Initial residual = 0.000119505, Final residual = 5.7505e-06, No Iterations 2
time step continuity errors : sum local = 4.51879e-06, global = -1.19288e-06, cumulative = -1.20096e-06
GAMG:  Solving for p_rgh, Initial residual = 2.02432e-05, Final residual = 4.11144e-06, No Iterations 1
GAMG:  Solving for p_rgh, Initial residual = 5.50246e-06, Final residual = 5.50246e-06, No Iterations 0
GAMG:  Solving for p_rgh, Initial residual = 5.50246e-06, Final residual = 5.50246e-06, No Iterations 0
GAMG:  Solving for p_rgh, Initial residual = 5.50246e-06, Final residual = 5.50246e-06, No Iterations 0
time step continuity errors : sum local = 4.32357e-06, global = -9.56068e-07, cumulative = -2.15703e-06
GAMG:  Solving for p_rgh, Initial residual = 5.54111e-06, Final residual = 5.54111e-06, No Iterations 0
GAMG:  Solving for p_rgh, Initial residual = 5.54119e-06, Final residual = 5.54119e-06, No Iterations 0
GAMG:  Solving for p_rgh, Initial residual = 5.54119e-06, Final residual = 5.54119e-06, No Iterations 0
GAMG:  Solving for p_rgh, Initial residual = 5.54119e-06, Final residual = 5.54119e-06, No Iterations 0
time step continuity errors : sum local = 4.35401e-06, global = -9.35796e-07, cumulative = -3.09283e-06
ExecutionTime = 2.19 s  ClockTime = 3 s

Courant Number mean: 0.00409558 max: 0.333543
Interface Courant Number mean: 2.4366e-06 max: 0.0791965
deltaT = 0.00139456
Time = 0.00258503

smoothSolver:  Solving for alpha.water, Initial residual = 0.0012166, Final residual = 5.03974e-10, No Iterations 3
Phase-1 volume fraction = 0.112026  Min(alpha.water) = -1.99994e-24  Max(alpha.water) = 1.00014
MULES: Correcting alpha.water
Phase-1 volume fraction = 0.112026  Min(alpha.water) = -4.25961e-10  Max(alpha.water) = 1.00014
GAMG:  Solving for p_rgh, Initial residual = 0.00359278, Final residual = 2.64294e-05, No Iterations 4
GAMG:  Solving for p_rgh, Initial residual = 0.000584779, Final residual = 6.66578e-06, No Iterations 4
GAMG:  Solving for p_rgh, Initial residual = 6.6267e-05, Final residual = 8.23339e-06, No Iterations 1
GAMG:  Solving for p_rgh, Initial residual = 1.2382e-05, Final residual = 4.47249e-06, No Iterations 1
time step continuity errors : sum local = 3.29839e-06, global = 1.53207e-06, cumulative = -1.56076e-06
GAMG:  Solving for p_rgh, Initial residual = 0.000275239, Final residual = 5.18923e-06, No Iterations 3
GAMG:  Solving for p_rgh, Initial residual = 3.55422e-05, Final residual = 4.77765e-06, No Iterations 1
GAMG:  Solving for p_rgh, Initial residual = 5.76031e-06, Final residual = 5.76031e-06, No Iterations 0
GAMG:  Solving for p_rgh, Initial residual = 5.76031e-06, Final residual = 5.76031e-06, No Iterations 0
time step continuity errors : sum local = 4.24759e-06, global = -2.5175e-07, cumulative = -1.81251e-06
GAMG:  Solving for p_rgh, Initial residual = 1.90984e-05, Final residual = 5.04476e-06, No Iterations 1
GAMG:  Solving for p_rgh, Initial residual = 6.07572e-06, Final residual = 6.07572e-06, No Iterations 0
GAMG:  Solving for p_rgh, Initial residual = 6.07572e-06, Final residual = 6.07572e-06, No Iterations 0
GAMG:  Solving for p_rgh, Initial residual = 6.07572e-06, Final residual = 6.07572e-06, No Iterations 0
time step continuity errors : sum local = 4.48026e-06, global = -3.72117e-08, cumulative = -1.84972e-06
ExecutionTime = 3.19 s  ClockTime = 4 s

Courant Number mean: 0.00484049 max: 0.197706
Interface Courant Number mean: 0.000309611 max: 0.113863
deltaT = 0.001635
Time = 0.00422003

smoothSolver:  Solving for alpha.water, Initial residual = 0.000812027, Final residual = 2.32984e-09, No Iterations 2
Phase-1 volume fraction = 0.112056  Min(alpha.water) = -7.49891e-23  Max(alpha.water) = 1.00013
MULES: Correcting alpha.water
Phase-1 volume fraction = 0.112056  Min(alpha.water) = -2.66047e-09  Max(alpha.water) = 1.00013
GAMG:  Solving for p_rgh, Initial residual = 0.00356233, Final residual = 1.81379e-05, No Iterations 4
GAMG:  Solving for p_rgh, Initial residual = 0.000332934, Final residual = 5.50911e-06, No Iterations 3
GAMG:  Solving for p_rgh, Initial residual = 3.6415e-05, Final residual = 5.75293e-06, No Iterations 1
GAMG:  Solving for p_rgh, Initial residual = 9.25267e-06, Final residual = 9.25267e-06, No Iterations 0
time step continuity errors : sum local = 9.56186e-06, global = -2.27122e-06, cumulative = -4.12094e-06
GAMG:  Solving for p_rgh, Initial residual = 2.90644e-05, Final residual = 5.36877e-06, No Iterations 1
GAMG:  Solving for p_rgh, Initial residual = 8.4015e-06, Final residual = 8.4015e-06, No Iterations 0
GAMG:  Solving for p_rgh, Initial residual = 8.4015e-06, Final residual = 8.4015e-06, No Iterations 0
GAMG:  Solving for p_rgh, Initial residual = 8.4015e-06, Final residual = 8.4015e-06, No Iterations 0
time step continuity errors : sum local = 8.68162e-06, global = -2.75224e-06, cumulative = -6.87318e-06
GAMG:  Solving for p_rgh, Initial residual = 8.98421e-06, Final residual = 8.98421e-06, No Iterations 0
GAMG:  Solving for p_rgh, Initial residual = 8.98424e-06, Final residual = 8.98424e-06, No Iterations 0
GAMG:  Solving for p_rgh, Initial residual = 8.98424e-06, Final residual = 8.98424e-06, No Iterations 0
GAMG:  Solving for p_rgh, Initial residual = 8.98424e-06, Final residual = 8.98424e-06, No Iterations 0
time step continuity errors : sum local = 9.28378e-06, global = -2.7459e-06, cumulative = -9.61909e-06
ExecutionTime = 4.13 s  ClockTime = 5 s

Courant Number mean: 0.00648375 max: 0.35143
Interface Courant Number mean: 0.000376479 max: 0.142036
deltaT = 0.0019075
Time = 0.00612753

smoothSolver:  Solving for alpha.water, Initial residual = 0.000842082, Final residual = 2.42655e-09, No Iterations 2
Phase-1 volume fraction = 0.112092  Min(alpha.water) = -4.08794e-19  Max(alpha.water) = 1.00017
MULES: Correcting alpha.water
Phase-1 volume fraction = 0.112092  Min(alpha.water) = -1.16267e-08  Max(alpha.water) = 1.00017
GAMG:  Solving for p_rgh, Initial residual = 0.00366626, Final residual = 2.85549e-05, No Iterations 3
GAMG:  Solving for p_rgh, Initial residual = 0.000304121, Final residual = 6.08264e-06, No Iterations 3
GAMG:  Solving for p_rgh, Initial residual = 3.52414e-05, Final residual = 5.88705e-06, No Iterations 1
GAMG:  Solving for p_rgh, Initial residual = 8.84009e-06, Final residual = 8.84009e-06, No Iterations 0
time step continuity errors : sum local = 1.24014e-05, global = -3.70103e-06, cumulative = -1.33201e-05
GAMG:  Solving for p_rgh, Initial residual = 2.87458e-05, Final residual = 6.26396e-06, No Iterations 1
GAMG:  Solving for p_rgh, Initial residual = 9.8092e-06, Final residual = 9.8092e-06, No Iterations 0
GAMG:  Solving for p_rgh, Initial residual = 9.8092e-06, Final residual = 9.8092e-06, No Iterations 0
GAMG:  Solving for p_rgh, Initial residual = 9.8092e-06, Final residual = 9.8092e-06, No Iterations 0
time step continuity errors : sum local = 1.37592e-05, global = -4.03351e-06, cumulative = -1.73536e-05
GAMG:  Solving for p_rgh, Initial residual = 1.0362e-05, Final residual = 3.81077e-06, No Iterations 1
GAMG:  Solving for p_rgh, Initial residual = 4.81601e-06, Final residual = 4.81601e-06, No Iterations 0
GAMG:  Solving for p_rgh, Initial residual = 4.81601e-06, Final residual = 4.81601e-06, No Iterations 0
GAMG:  Solving for p_rgh, Initial residual = 4.81601e-06, Final residual = 4.81601e-06, No Iterations 0
time step continuity errors : sum local = 6.75466e-06, global = -2.44985e-06, cumulative = -1.98035e-05
ExecutionTime = 5.06 s  ClockTime = 6 s

Courant Number mean: 0.00911298 max: 0.505153
Interface Courant Number mean: 0.000584778 max: 0.175346
deltaT = 0.00219362
Time = 0.00832115

smoothSolver:  Solving for alpha.water, Initial residual = 0.00103896, Final residual = 3.89104e-09, No Iterations 2
Phase-1 volume fraction = 0.112133  Min(alpha.water) = -7.44766e-17  Max(alpha.water) = 1.00016
MULES: Correcting alpha.water
Phase-1 volume fraction = 0.112133  Min(alpha.water) = -1.08028e-07  Max(alpha.water) = 1.00016
GAMG:  Solving for p_rgh, Initial residual = 0.00449798, Final residual = 2.07023e-05, No Iterations 3
GAMG:  Solving for p_rgh, Initial residual = 0.000328401, Final residual = 9.90216e-06, No Iterations 2
GAMG:  Solving for p_rgh, Initial residual = 3.77191e-05, Final residual = 7.19664e-06, No Iterations 1
GAMG:  Solving for p_rgh, Initial residual = 1.05215e-05, Final residual = 4.03468e-06, No Iterations 1
time step continuity errors : sum local = 7.45548e-06, global = -4.7718e-06, cumulative = -2.45753e-05
GAMG:  Solving for p_rgh, Initial residual = 2.87577e-05, Final residual = 5.95937e-06, No Iterations 1
GAMG:  Solving for p_rgh, Initial residual = 9.50708e-06, Final residual = 9.50708e-06, No Iterations 0
GAMG:  Solving for p_rgh, Initial residual = 9.50708e-06, Final residual = 9.50708e-06, No Iterations 0
GAMG:  Solving for p_rgh, Initial residual = 9.50708e-06, Final residual = 9.50708e-06, No Iterations 0
time step continuity errors : sum local = 1.75684e-05, global = -4.79927e-06, cumulative = -2.93745e-05
GAMG:  Solving for p_rgh, Initial residual = 1.0509e-05, Final residual = 3.47995e-06, No Iterations 1
GAMG:  Solving for p_rgh, Initial residual = 4.31899e-06, Final residual = 4.31899e-06, No Iterations 0
GAMG:  Solving for p_rgh, Initial residual = 4.31899e-06, Final residual = 4.31899e-06, No Iterations 0
GAMG:  Solving for p_rgh, Initial residual = 4.31899e-06, Final residual = 4.31899e-06, No Iterations 0
time step continuity errors : sum local = 7.98004e-06, global = -3.25544e-06, cumulative = -3.263e-05
ExecutionTime = 6 s  ClockTime = 7 s

Courant Number mean: 0.0126191 max: 0.662738
Interface Courant Number mean: 0.000949272 max: 0.214937
deltaT = 0.0024517
Time = 0.0107729

smoothSolver:  Solving for alpha.water, Initial residual = 0.00129997, Final residual = 7.19992e-09, No Iterations 2
Phase-1 volume fraction = 0.112179  Min(alpha.water) = -6.52509e-15  Max(alpha.water) = 1.00014
MULES: Correcting alpha.water
Phase-1 volume fraction = 0.112179  Min(alpha.water) = -4.68864e-08  Max(alpha.water) = 1.00014
GAMG:  Solving for p_rgh, Initial residual = 0.00569383, Final residual = 5.46443e-05, No Iterations 2
GAMG:  Solving for p_rgh, Initial residual = 0.000410017, Final residual = 6.61214e-06, No Iterations 3
GAMG:  Solving for p_rgh, Initial residual = 4.75787e-05, Final residual = 6.7088e-06, No Iterations 1
GAMG:  Solving for p_rgh, Initial residual = 1.00816e-05, Final residual = 3.55066e-06, No Iterations 1
time step continuity errors : sum local = 8.11757e-06, global = -4.85449e-06, cumulative = -3.74845e-05
GAMG:  Solving for p_rgh, Initial residual = 3.07112e-05, Final residual = 5.77863e-06, No Iterations 1
GAMG:  Solving for p_rgh, Initial residual = 9.75864e-06, Final residual = 9.75864e-06, No Iterations 0
GAMG:  Solving for p_rgh, Initial residual = 9.75864e-06, Final residual = 9.75864e-06, No Iterations 0
GAMG:  Solving for p_rgh, Initial residual = 9.75864e-06, Final residual = 9.75864e-06, No Iterations 0
time step continuity errors : sum local = 2.23085e-05, global = -5.3338e-06, cumulative = -4.28183e-05
GAMG:  Solving for p_rgh, Initial residual = 1.12042e-05, Final residual = 3.34759e-06, No Iterations 1
GAMG:  Solving for p_rgh, Initial residual = 4.18938e-06, Final residual = 4.18938e-06, No Iterations 0
GAMG:  Solving for p_rgh, Initial residual = 4.18938e-06, Final residual = 4.18938e-06, No Iterations 0
GAMG:  Solving for p_rgh, Initial residual = 4.18938e-06, Final residual = 4.18938e-06, No Iterations 0
time step continuity errors : sum local = 9.57465e-06, global = -4.10425e-06, cumulative = -4.69225e-05
ExecutionTime = 6.97 s  ClockTime = 8 s

Courant Number mean: 0.0168308 max: 0.803229
Interface Courant Number mean: 0.00140933 max: 0.310557
deltaT = 0.00261514
Time = 0.013388

smoothSolver:  Solving for alpha.water, Initial residual = 0.00156392, Final residual = 1.09226e-10, No Iterations 3
Phase-1 volume fraction = 0.112227  Min(alpha.water) = -5.40797e-18  Max(alpha.water) = 1.00016
MULES: Correcting alpha.water
Phase-1 volume fraction = 0.112227  Min(alpha.water) = -2.7633e-07  Max(alpha.water) = 1.00016
GAMG:  Solving for p_rgh, Initial residual = 0.00701826, Final residual = 5.65105e-05, No Iterations 2
GAMG:  Solving for p_rgh, Initial residual = 0.000478844, Final residual = 7.44863e-06, No Iterations 3
GAMG:  Solving for p_rgh, Initial residual = 5.45988e-05, Final residual = 7.7423e-06, No Iterations 1
GAMG:  Solving for p_rgh, Initial residual = 1.14409e-05, Final residual = 3.93166e-06, No Iterations 1
time step continuity errors : sum local = 1.00849e-05, global = -5.56469e-06, cumulative = -5.24872e-05
GAMG:  Solving for p_rgh, Initial residual = 3.41829e-05, Final residual = 6.01055e-06, No Iterations 1
GAMG:  Solving for p_rgh, Initial residual = 1.04024e-05, Final residual = 3.19557e-06, No Iterations 1
GAMG:  Solving for p_rgh, Initial residual = 3.92073e-06, Final residual = 3.92073e-06, No Iterations 0
GAMG:  Solving for p_rgh, Initial residual = 3.92073e-06, Final residual = 3.92073e-06, No Iterations 0
time step continuity errors : sum local = 1.00536e-05, global = -4.53364e-06, cumulative = -5.70209e-05
GAMG:  Solving for p_rgh, Initial residual = 7.01253e-06, Final residual = 7.01253e-06, No Iterations 0
GAMG:  Solving for p_rgh, Initial residual = 7.01256e-06, Final residual = 7.01256e-06, No Iterations 0
GAMG:  Solving for p_rgh, Initial residual = 7.01256e-06, Final residual = 7.01256e-06, No Iterations 0
GAMG:  Solving for p_rgh, Initial residual = 7.01256e-06, Final residual = 7.01256e-06, No Iterations 0
time step continuity errors : sum local = 1.79818e-05, global = -4.18723e-06, cumulative = -6.12081e-05
ExecutionTime = 7.94 s  ClockTime = 9 s

Courant Number mean: 0.0210552 max: 0.893363
Interface Courant Number mean: 0.00182902 max: 0.355924
deltaT = 0.00281631
Time = 0.0162043

smoothSolver:  Solving for alpha.water, Initial residual = 0.00188617, Final residual = 3.21688e-10, No Iterations 3
Phase-1 volume fraction = 0.11228  Min(alpha.water) = -2.1024e-16  Max(alpha.water) = 1.00014
MULES: Correcting alpha.water
Phase-1 volume fraction = 0.11228  Min(alpha.water) = -1.07756e-06  Max(alpha.water) = 1.00014
GAMG:  Solving for p_rgh, Initial residual = 0.00871282, Final residual = 6.23847e-05, No Iterations 2
GAMG:  Solving for p_rgh, Initial residual = 0.000567921, Final residual = 8.74162e-06, No Iterations 3
GAMG:  Solving for p_rgh, Initial residual = 6.42514e-05, Final residual = 9.14699e-06, No Iterations 1
GAMG:  Solving for p_rgh, Initial residual = 1.33709e-05, Final residual = 4.53239e-06, No Iterations 1
time step continuity errors : sum local = 1.3226e-05, global = -6.61521e-06, cumulative = -6.78233e-05
GAMG:  Solving for p_rgh, Initial residual = 4.00599e-05, Final residual = 6.56197e-06, No Iterations 1
GAMG:  Solving for p_rgh, Initial residual = 1.11257e-05, Final residual = 3.4096e-06, No Iterations 1
GAMG:  Solving for p_rgh, Initial residual = 4.21072e-06, Final residual = 4.21072e-06, No Iterations 0
GAMG:  Solving for p_rgh, Initial residual = 4.21072e-06, Final residual = 4.21072e-06, No Iterations 0
time step continuity errors : sum local = 1.22835e-05, global = -5.72766e-06, cumulative = -7.3551e-05
GAMG:  Solving for p_rgh, Initial residual = 8.46157e-06, Final residual = 8.46157e-06, No Iterations 0
GAMG:  Solving for p_rgh, Initial residual = 8.46161e-06, Final residual = 8.46161e-06, No Iterations 0
GAMG:  Solving for p_rgh, Initial residual = 8.46161e-06, Final residual = 8.46161e-06, No Iterations 0
GAMG:  Solving for p_rgh, Initial residual = 8.46161e-06, Final residual = 8.46161e-06, No Iterations 0
time step continuity errors : sum local = 2.46841e-05, global = -5.15252e-06, cumulative = -7.87035e-05
ExecutionTime = 8.94 s  ClockTime = 10 s

Courant Number mean: 0.0262912 max: 0.976246
Interface Courant Number mean: 0.00237075 max: 0.470389
deltaT = 0.00281631
Time = 0.0190206

smoothSolver:  Solving for alpha.water, Initial residual = 0.00210249, Final residual = 6.10031e-10, No Iterations 3
Phase-1 volume fraction = 0.112333  Min(alpha.water) = -4.04351e-15  Max(alpha.water) = 1.00017
MULES: Correcting alpha.water
Phase-1 volume fraction = 0.112333  Min(alpha.water) = -2.23863e-06  Max(alpha.water) = 1.00017
GAMG:  Solving for p_rgh, Initial residual = 0.010182, Final residual = 6.61287e-05, No Iterations 2
GAMG:  Solving for p_rgh, Initial residual = 0.000650038, Final residual = 9.80796e-06, No Iterations 3
GAMG:  Solving for p_rgh, Initial residual = 7.20434e-05, Final residual = 4.25512e-06, No Iterations 2
GAMG:  Solving for p_rgh, Initial residual = 1.14695e-05, Final residual = 3.01249e-06, No Iterations 1
time step continuity errors : sum local = 8.70006e-06, global = -4.07555e-06, cumulative = -8.2779e-05
GAMG:  Solving for p_rgh, Initial residual = 4.18111e-05, Final residual = 5.94769e-06, No Iterations 1
GAMG:  Solving for p_rgh, Initial residual = 1.06125e-05, Final residual = 2.80937e-06, No Iterations 1
GAMG:  Solving for p_rgh, Initial residual = 3.54164e-06, Final residual = 3.54164e-06, No Iterations 0
GAMG:  Solving for p_rgh, Initial residual = 3.54164e-06, Final residual = 3.54164e-06, No Iterations 0
time step continuity errors : sum local = 1.02198e-05, global = -4.50974e-06, cumulative = -8.72888e-05
GAMG:  Solving for p_rgh, Initial residual = 8.12392e-06, Final residual = 8.12392e-06, No Iterations 0
GAMG:  Solving for p_rgh, Initial residual = 8.12398e-06, Final residual = 8.12398e-06, No Iterations 0
GAMG:  Solving for p_rgh, Initial residual = 8.12398e-06, Final residual = 8.12398e-06, No Iterations 0
GAMG:  Solving for p_rgh, Initial residual = 8.12398e-06, Final residual = 8.12398e-06, No Iterations 0
time step continuity errors : sum local = 2.34426e-05, global = -3.84518e-06, cumulative = -9.11339e-05
ExecutionTime = 9.95 s  ClockTime = 11 s

Courant Number mean: 0.0299769 max: 0.964461
Interface Courant Number mean: 0.00272663 max: 0.508515
deltaT = 0.00281631
Time = 0.0218369

smoothSolver:  Solving for alpha.water, Initial residual = 0.00231198, Final residual = 1.1961e-09, No Iterations 3
Phase-1 volume fraction = 0.112386  Min(alpha.water) = -3.17664e-14  Max(alpha.water) = 1.00025
MULES: Correcting alpha.water
Phase-1 volume fraction = 0.112386  Min(alpha.water) = -4.33045e-06  Max(alpha.water) = 1.00025
GAMG:  Solving for p_rgh, Initial residual = 0.0115906, Final residual = 7.05382e-05, No Iterations 2
GAMG:  Solving for p_rgh, Initial residual = 0.000744745, Final residual = 5.0958e-06, No Iterations 4
GAMG:  Solving for p_rgh, Initial residual = 7.86978e-05, Final residual = 9.29176e-06, No Iterations 1
GAMG:  Solving for p_rgh, Initial residual = 1.45317e-05, Final residual = 3.93215e-06, No Iterations 1
time step continuity errors : sum local = 1.12655e-05, global = -5.53394e-06, cumulative = -9.66679e-05
GAMG:  Solving for p_rgh, Initial residual = 4.43377e-05, Final residual = 6.46818e-06, No Iterations 1
GAMG:  Solving for p_rgh, Initial residual = 1.12799e-05, Final residual = 3.00614e-06, No Iterations 1
GAMG:  Solving for p_rgh, Initial residual = 3.86762e-06, Final residual = 3.86762e-06, No Iterations 0
GAMG:  Solving for p_rgh, Initial residual = 3.86762e-06, Final residual = 3.86762e-06, No Iterations 0
time step continuity errors : sum local = 1.10712e-05, global = -5.06707e-06, cumulative = -0.000101735
GAMG:  Solving for p_rgh, Initial residual = 8.96235e-06, Final residual = 8.96235e-06, No Iterations 0
GAMG:  Solving for p_rgh, Initial residual = 8.9624e-06, Final residual = 8.9624e-06, No Iterations 0
GAMG:  Solving for p_rgh, Initial residual = 8.9624e-06, Final residual = 8.9624e-06, No Iterations 0
GAMG:  Solving for p_rgh, Initial residual = 8.9624e-06, Final residual = 8.9624e-06, No Iterations 0
time step continuity errors : sum local = 2.56552e-05, global = -4.25428e-06, cumulative = -0.000105989
ExecutionTime = 10.96 s  ClockTime = 12 s

Courant Number mean: 0.0337937 max: 0.932179
Interface Courant Number mean: 0.00307321 max: 0.552794
deltaT = 0.00281631
Time = 0.0246532

smoothSolver:  Solving for alpha.water, Initial residual = 0.00252062, Final residual = 2.18193e-09, No Iterations 3
Phase-1 volume fraction = 0.112438  Min(alpha.water) = -7.47748e-18  Max(alpha.water) = 1.00034
MULES: Correcting alpha.water
Phase-1 volume fraction = 0.112438  Min(alpha.water) = -2.30118e-06  Max(alpha.water) = 1.00034
GAMG:  Solving for p_rgh, Initial residual = 0.0130496, Final residual = 7.35303e-05, No Iterations 2
GAMG:  Solving for p_rgh, Initial residual = 0.000847685, Final residual = 4.50746e-06, No Iterations 4
GAMG:  Solving for p_rgh, Initial residual = 8.54428e-05, Final residual = 9.90096e-06, No Iterations 1
GAMG:  Solving for p_rgh, Initial residual = 1.55735e-05, Final residual = 3.92397e-06, No Iterations 1
time step continuity errors : sum local = 1.10965e-05, global = -5.09474e-06, cumulative = -0.000111084
GAMG:  Solving for p_rgh, Initial residual = 4.61893e-05, Final residual = 6.51222e-06, No Iterations 1
GAMG:  Solving for p_rgh, Initial residual = 1.13577e-05, Final residual = 2.9114e-06, No Iterations 1
GAMG:  Solving for p_rgh, Initial residual = 3.84233e-06, Final residual = 3.84233e-06, No Iterations 0
GAMG:  Solving for p_rgh, Initial residual = 3.84233e-06, Final residual = 3.84233e-06, No Iterations 0
time step continuity errors : sum local = 1.08568e-05, global = -4.91429e-06, cumulative = -0.000115998
GAMG:  Solving for p_rgh, Initial residual = 9.47199e-06, Final residual = 9.47199e-06, No Iterations 0
GAMG:  Solving for p_rgh, Initial residual = 9.47207e-06, Final residual = 9.47207e-06, No Iterations 0
GAMG:  Solving for p_rgh, Initial residual = 9.47207e-06, Final residual = 9.47207e-06, No Iterations 0
GAMG:  Solving for p_rgh, Initial residual = 9.47207e-06, Final residual = 9.47207e-06, No Iterations 0
time step continuity errors : sum local = 2.67641e-05, global = -4.04078e-06, cumulative = -0.000120039
ExecutionTime = 11.98 s  ClockTime = 13 s

Courant Number mean: 0.0374806 max: 0.891481
Interface Courant Number mean: 0.00312731 max: 0.577731
deltaT = 0.00281631
Time = 0.0274695

smoothSolver:  Solving for alpha.water, Initial residual = 0.00274668, Final residual = 3.71933e-09, No Iterations 3
Phase-1 volume fraction = 0.112491  Min(alpha.water) = -1.00868e-17  Max(alpha.water) = 1.00044
MULES: Correcting alpha.water
Phase-1 volume fraction = 0.112491  Min(alpha.water) = -3.57049e-06  Max(alpha.water) = 1.00044
GAMG:  Solving for p_rgh, Initial residual = 0.0142121, Final residual = 7.88577e-05, No Iterations 2
GAMG:  Solving for p_rgh, Initial residual = 0.000936703, Final residual = 4.41979e-06, No Iterations 4
GAMG:  Solving for p_rgh, Initial residual = 9.2369e-05, Final residual = 3.1392e-06, No Iterations 2
GAMG:  Solving for p_rgh, Initial residual = 1.16002e-05, Final residual = 2.49498e-06, No Iterations 1
time step continuity errors : sum local = 6.95134e-06, global = -3.41076e-06, cumulative = -0.00012345
GAMG:  Solving for p_rgh, Initial residual = 4.46433e-05, Final residual = 6.09832e-06, No Iterations 1
GAMG:  Solving for p_rgh, Initial residual = 1.06028e-05, Final residual = 2.55998e-06, No Iterations 1
GAMG:  Solving for p_rgh, Initial residual = 3.40502e-06, Final residual = 3.40502e-06, No Iterations 0
GAMG:  Solving for p_rgh, Initial residual = 3.40502e-06, Final residual = 3.40502e-06, No Iterations 0
time step continuity errors : sum local = 9.477e-06, global = -4.13033e-06, cumulative = -0.00012758
GAMG:  Solving for p_rgh, Initial residual = 9.44325e-06, Final residual = 9.44325e-06, No Iterations 0
GAMG:  Solving for p_rgh, Initial residual = 9.44334e-06, Final residual = 9.44334e-06, No Iterations 0
GAMG:  Solving for p_rgh, Initial residual = 9.44334e-06, Final residual = 9.44334e-06, No Iterations 0
GAMG:  Solving for p_rgh, Initial residual = 9.44334e-06, Final residual = 9.44334e-06, No Iterations 0
time step continuity errors : sum local = 2.62831e-05, global = -3.30318e-06, cumulative = -0.000130883
ExecutionTime = 12.99 s  ClockTime = 14 s

Courant Number mean: 0.0408536 max: 0.838964
Interface Courant Number mean: 0.0035213 max: 0.606913
deltaT = 0.00281631
Time = 0.0302858

smoothSolver:  Solving for alpha.water, Initial residual = 0.00297871, Final residual = 6.03079e-09, No Iterations 3
Phase-1 volume fraction = 0.112545  Min(alpha.water) = -2.8443e-17  Max(alpha.water) = 1.00053
MULES: Correcting alpha.water
Phase-1 volume fraction = 0.112545  Min(alpha.water) = -7.39201e-06  Max(alpha.water) = 1.00053
GAMG:  Solving for p_rgh, Initial residual = 0.0154829, Final residual = 8.6032e-05, No Iterations 2
GAMG:  Solving for p_rgh, Initial residual = 0.00105053, Final residual = 4.5546e-06, No Iterations 4
GAMG:  Solving for p_rgh, Initial residual = 9.96313e-05, Final residual = 3.32599e-06, No Iterations 2
GAMG:  Solving for p_rgh, Initial residual = 1.21346e-05, Final residual = 2.60233e-06, No Iterations 1
time step continuity errors : sum local = 7.12568e-06, global = -3.61021e-06, cumulative = -0.000134494
GAMG:  Solving for p_rgh, Initial residual = 4.34587e-05, Final residual = 6.43566e-06, No Iterations 1
GAMG:  Solving for p_rgh, Initial residual = 1.06838e-05, Final residual = 2.62993e-06, No Iterations 1
GAMG:  Solving for p_rgh, Initial residual = 3.53134e-06, Final residual = 3.53134e-06, No Iterations 0
GAMG:  Solving for p_rgh, Initial residual = 3.53134e-06, Final residual = 3.53134e-06, No Iterations 0
time step continuity errors : sum local = 9.65966e-06, global = -4.30377e-06, cumulative = -0.000138797
GAMG:  Solving for p_rgh, Initial residual = 1.00644e-05, Final residual = 2.50938e-06, No Iterations 1
GAMG:  Solving for p_rgh, Initial residual = 3.39518e-06, Final residual = 3.39518e-06, No Iterations 0
GAMG:  Solving for p_rgh, Initial residual = 3.39518e-06, Final residual = 3.39518e-06, No Iterations 0
GAMG:  Solving for p_rgh, Initial residual = 3.39518e-06, Final residual = 3.39518e-06, No Iterations 0
time step continuity errors : sum local = 9.2833e-06, global = -3.61851e-06, cumulative = -0.000142416
ExecutionTime = 13.99 s  ClockTime = 15 s

Courant Number mean: 0.0438213 max: 0.777671
Interface Courant Number mean: 0.00397668 max: 0.649592
deltaT = 0.00281631
Time = 0.0331022

smoothSolver:  Solving for alpha.water, Initial residual = 0.00319344, Final residual = 8.12754e-09, No Iterations 3
Phase-1 volume fraction = 0.112598  Min(alpha.water) = -1.28601e-16  Max(alpha.water) = 1.00053
MULES: Correcting alpha.water
Phase-1 volume fraction = 0.112598  Min(alpha.water) = -3.18045e-06  Max(alpha.water) = 1.00053
GAMG:  Solving for p_rgh, Initial residual = 0.0163328, Final residual = 8.91307e-05, No Iterations 2
GAMG:  Solving for p_rgh, Initial residual = 0.00111629, Final residual = 5.16377e-06, No Iterations 4
GAMG:  Solving for p_rgh, Initial residual = 0.000105042, Final residual = 3.63097e-06, No Iterations 2
GAMG:  Solving for p_rgh, Initial residual = 1.25128e-05, Final residual = 2.80199e-06, No Iterations 1
time step continuity errors : sum local = 7.52416e-06, global = -3.83013e-06, cumulative = -0.000146246
GAMG:  Solving for p_rgh, Initial residual = 4.33805e-05, Final residual = 6.36239e-06, No Iterations 1
GAMG:  Solving for p_rgh, Initial residual = 1.06266e-05, Final residual = 2.70194e-06, No Iterations 1
GAMG:  Solving for p_rgh, Initial residual = 3.57259e-06, Final residual = 3.57259e-06, No Iterations 0
GAMG:  Solving for p_rgh, Initial residual = 3.57259e-06, Final residual = 3.57259e-06, No Iterations 0
time step continuity errors : sum local = 9.58348e-06, global = -4.4251e-06, cumulative = -0.000150671
GAMG:  Solving for p_rgh, Initial residual = 1.07178e-05, Final residual = 2.69914e-06, No Iterations 1
GAMG:  Solving for p_rgh, Initial residual = 3.64019e-06, Final residual = 3.64019e-06, No Iterations 0
GAMG:  Solving for p_rgh, Initial residual = 3.64019e-06, Final residual = 3.64019e-06, No Iterations 0
GAMG:  Solving for p_rgh, Initial residual = 3.64019e-06, Final residual = 3.64019e-06, No Iterations 0
time step continuity errors : sum local = 9.76057e-06, global = -3.91129e-06, cumulative = -0.000154582
ExecutionTime = 15 s  ClockTime = 16 s

Courant Number mean: 0.0466198 max: 0.742443
Interface Courant Number mean: 0.00446422 max: 0.686948
deltaT = 0.00281631
Time = 0.0359185

smoothSolver:  Solving for alpha.water, Initial residual = 0.0033812, Final residual = 8.81442e-09, No Iterations 3
Phase-1 volume fraction = 0.112652  Min(alpha.water) = -6.17302e-16  Max(alpha.water) = 1.00052
MULES: Correcting alpha.water
Phase-1 volume fraction = 0.112652  Min(alpha.water) = -6.52648e-06  Max(alpha.water) = 1.00052
GAMG:  Solving for p_rgh, Initial residual = 0.0169889, Final residual = 9.01469e-05, No Iterations 2
GAMG:  Solving for p_rgh, Initial residual = 0.00118374, Final residual = 5.49524e-06, No Iterations 4
GAMG:  Solving for p_rgh, Initial residual = 0.000107999, Final residual = 3.79927e-06, No Iterations 2
GAMG:  Solving for p_rgh, Initial residual = 1.2729e-05, Final residual = 2.91647e-06, No Iterations 1
time step continuity errors : sum local = 7.69948e-06, global = -4.03124e-06, cumulative = -0.000158614
GAMG:  Solving for p_rgh, Initial residual = 4.51938e-05, Final residual = 6.40877e-06, No Iterations 1
GAMG:  Solving for p_rgh, Initial residual = 1.07093e-05, Final residual = 2.77855e-06, No Iterations 1
GAMG:  Solving for p_rgh, Initial residual = 3.63236e-06, Final residual = 3.63236e-06, No Iterations 0
GAMG:  Solving for p_rgh, Initial residual = 3.63236e-06, Final residual = 3.63236e-06, No Iterations 0
time step continuity errors : sum local = 9.57917e-06, global = -4.40808e-06, cumulative = -0.000163022
GAMG:  Solving for p_rgh, Initial residual = 1.12409e-05, Final residual = 2.809e-06, No Iterations 1
GAMG:  Solving for p_rgh, Initial residual = 3.78247e-06, Final residual = 3.78247e-06, No Iterations 0
GAMG:  Solving for p_rgh, Initial residual = 3.78247e-06, Final residual = 3.78247e-06, No Iterations 0
GAMG:  Solving for p_rgh, Initial residual = 3.78247e-06, Final residual = 3.78247e-06, No Iterations 0
time step continuity errors : sum local = 9.97052e-06, global = -4.02523e-06, cumulative = -0.000167047
ExecutionTime = 16.02 s  ClockTime = 17 s

Courant Number mean: 0.0493623 max: 0.779841
Interface Courant Number mean: 0.00507977 max: 0.716328
deltaT = 0.00281631
Time = 0.0387348

smoothSolver:  Solving for alpha.water, Initial residual = 0.00354498, Final residual = 9.24312e-09, No Iterations 3
Phase-1 volume fraction = 0.112705  Min(alpha.water) = -1.62821e-19  Max(alpha.water) = 1.00051
MULES: Correcting alpha.water
Phase-1 volume fraction = 0.112705  Min(alpha.water) = -8.73431e-06  Max(alpha.water) = 1.00051
GAMG:  Solving for p_rgh, Initial residual = 0.0171259, Final residual = 9.2163e-05, No Iterations 2
GAMG:  Solving for p_rgh, Initial residual = 0.0012102, Final residual = 5.74135e-06, No Iterations 4
GAMG:  Solving for p_rgh, Initial residual = 0.000108938, Final residual = 3.84781e-06, No Iterations 2
GAMG:  Solving for p_rgh, Initial residual = 1.26862e-05, Final residual = 2.92457e-06, No Iterations 1
time step continuity errors : sum local = 7.5818e-06, global = -4.07381e-06, cumulative = -0.000171121
GAMG:  Solving for p_rgh, Initial residual = 4.70534e-05, Final residual = 6.71394e-06, No Iterations 1
GAMG:  Solving for p_rgh, Initial residual = 1.11288e-05, Final residual = 2.93851e-06, No Iterations 1
GAMG:  Solving for p_rgh, Initial residual = 3.81357e-06, Final residual = 3.81357e-06, No Iterations 0
GAMG:  Solving for p_rgh, Initial residual = 3.81357e-06, Final residual = 3.81357e-06, No Iterations 0
time step continuity errors : sum local = 9.87559e-06, global = -4.56468e-06, cumulative = -0.000175685
GAMG:  Solving for p_rgh, Initial residual = 1.20889e-05, Final residual = 2.97232e-06, No Iterations 1
GAMG:  Solving for p_rgh, Initial residual = 3.96761e-06, Final residual = 3.96761e-06, No Iterations 0
GAMG:  Solving for p_rgh, Initial residual = 3.96761e-06, Final residual = 3.96761e-06, No Iterations 0
GAMG:  Solving for p_rgh, Initial residual = 3.96761e-06, Final residual = 3.96761e-06, No Iterations 0
time step continuity errors : sum local = 1.02696e-05, global = -4.20411e-06, cumulative = -0.000179889
ExecutionTime = 17.03 s  ClockTime = 18 s

Courant Number mean: 0.0520105 max: 0.814278
Interface Courant Number mean: 0.00565008 max: 0.74725
deltaT = 0.00281631
Time = 0.0415511

smoothSolver:  Solving for alpha.water, Initial residual = 0.00373805, Final residual = 2.46198e-10, No Iterations 4
Phase-1 volume fraction = 0.112759  Min(alpha.water) = -1.7139e-23  Max(alpha.water) = 1.0005
MULES: Correcting alpha.water
Phase-1 volume fraction = 0.112759  Min(alpha.water) = -3.75964e-06  Max(alpha.water) = 1.0005
GAMG:  Solving for p_rgh, Initial residual = 0.0169164, Final residual = 9.21046e-05, No Iterations 2
GAMG:  Solving for p_rgh, Initial residual = 0.00119285, Final residual = 5.49307e-06, No Iterations 4
GAMG:  Solving for p_rgh, Initial residual = 0.000104879, Final residual = 3.63059e-06, No Iterations 2
GAMG:  Solving for p_rgh, Initial residual = 1.21065e-05, Final residual = 2.75996e-06, No Iterations 1
time step continuity errors : sum local = 7.04635e-06, global = -3.95411e-06, cumulative = -0.000183844
GAMG:  Solving for p_rgh, Initial residual = 4.79107e-05, Final residual = 6.82443e-06, No Iterations 1
GAMG:  Solving for p_rgh, Initial residual = 1.12928e-05, Final residual = 3.06099e-06, No Iterations 1
GAMG:  Solving for p_rgh, Initial residual = 3.9257e-06, Final residual = 3.9257e-06, No Iterations 0
GAMG:  Solving for p_rgh, Initial residual = 3.9257e-06, Final residual = 3.9257e-06, No Iterations 0
time step continuity errors : sum local = 1.00109e-05, global = -4.64231e-06, cumulative = -0.000188486
GAMG:  Solving for p_rgh, Initial residual = 1.2408e-05, Final residual = 3.0979e-06, No Iterations 1
GAMG:  Solving for p_rgh, Initial residual = 4.10133e-06, Final residual = 4.10133e-06, No Iterations 0
GAMG:  Solving for p_rgh, Initial residual = 4.10133e-06, Final residual = 4.10133e-06, No Iterations 0
GAMG:  Solving for p_rgh, Initial residual = 4.10133e-06, Final residual = 4.10133e-06, No Iterations 0
time step continuity errors : sum local = 1.04535e-05, global = -4.32811e-06, cumulative = -0.000192814
ExecutionTime = 18.04 s  ClockTime = 19 s

Courant Number mean: 0.0545544 max: 0.856642
Interface Courant Number mean: 0.00615352 max: 0.771995
deltaT = 0.00281631
Time = 0.0443674

smoothSolver:  Solving for alpha.water, Initial residual = 0.00390154, Final residual = 3.53555e-10, No Iterations 4
Phase-1 volume fraction = 0.112813  Min(alpha.water) = -1.49277e-23  Max(alpha.water) = 1.00048
MULES: Correcting alpha.water
Phase-1 volume fraction = 0.112813  Min(alpha.water) = -4.92789e-06  Max(alpha.water) = 1.00048
GAMG:  Solving for p_rgh, Initial residual = 0.0160688, Final residual = 9.2774e-05, No Iterations 2
GAMG:  Solving for p_rgh, Initial residual = 0.00108984, Final residual = 4.86064e-06, No Iterations 4
GAMG:  Solving for p_rgh, Initial residual = 9.49157e-05, Final residual = 3.18528e-06, No Iterations 2
GAMG:  Solving for p_rgh, Initial residual = 1.08452e-05, Final residual = 2.43098e-06, No Iterations 1
time step continuity errors : sum local = 6.14939e-06, global = -3.63828e-06, cumulative = -0.000196452
GAMG:  Solving for p_rgh, Initial residual = 4.98083e-05, Final residual = 6.95242e-06, No Iterations 1
GAMG:  Solving for p_rgh, Initial residual = 1.14812e-05, Final residual = 3.16936e-06, No Iterations 1
GAMG:  Solving for p_rgh, Initial residual = 4.04229e-06, Final residual = 4.04229e-06, No Iterations 0
GAMG:  Solving for p_rgh, Initial residual = 4.04229e-06, Final residual = 4.04229e-06, No Iterations 0
time step continuity errors : sum local = 1.02128e-05, global = -4.63572e-06, cumulative = -0.000201088
GAMG:  Solving for p_rgh, Initial residual = 1.28836e-05, Final residual = 3.18864e-06, No Iterations 1
GAMG:  Solving for p_rgh, Initial residual = 4.24384e-06, Final residual = 4.24384e-06, No Iterations 0
GAMG:  Solving for p_rgh, Initial residual = 4.24384e-06, Final residual = 4.24384e-06, No Iterations 0
GAMG:  Solving for p_rgh, Initial residual = 4.24384e-06, Final residual = 4.24384e-06, No Iterations 0
time step continuity errors : sum local = 1.07162e-05, global = -4.31573e-06, cumulative = -0.000205404
ExecutionTime = 19.04 s  ClockTime = 20 s

Courant Number mean: 0.0570109 max: 0.892034
Interface Courant Number mean: 0.00650236 max: 0.846089
deltaT = 0.00281631
Time = 0.0471837

smoothSolver:  Solving for alpha.water, Initial residual = 0.00413271, Final residual = 5.62972e-10, No Iterations 4
Phase-1 volume fraction = 0.112866  Min(alpha.water) = -1.08333e-16  Max(alpha.water) = 1.00046
MULES: Correcting alpha.water
Phase-1 volume fraction = 0.112866  Min(alpha.water) = -2.41846e-06  Max(alpha.water) = 1.00046
GAMG:  Solving for p_rgh, Initial residual = 0.0187013, Final residual = 0.000176588, No Iterations 2
GAMG:  Solving for p_rgh, Initial residual = 0.0012299, Final residual = 6.36896e-06, No Iterations 4
GAMG:  Solving for p_rgh, Initial residual = 9.68796e-05, Final residual = 9.00774e-06, No Iterations 1
GAMG:  Solving for p_rgh, Initial residual = 1.32758e-05, Final residual = 4.13725e-06, No Iterations 1
time step continuity errors : sum local = 1.0809e-05, global = -4.71211e-06, cumulative = -0.000210116
GAMG:  Solving for p_rgh, Initial residual = 5.79879e-05, Final residual = 8.63228e-06, No Iterations 1
GAMG:  Solving for p_rgh, Initial residual = 1.34603e-05, Final residual = 4.10269e-06, No Iterations 1
GAMG:  Solving for p_rgh, Initial residual = 5.18821e-06, Final residual = 5.18821e-06, No Iterations 0
GAMG:  Solving for p_rgh, Initial residual = 5.18821e-06, Final residual = 5.18821e-06, No Iterations 0
time step continuity errors : sum local = 1.35456e-05, global = -5.60583e-06, cumulative = -0.000215722
GAMG:  Solving for p_rgh, Initial residual = 1.40733e-05, Final residual = 3.63902e-06, No Iterations 1
GAMG:  Solving for p_rgh, Initial residual = 4.85944e-06, Final residual = 4.85944e-06, No Iterations 0
GAMG:  Solving for p_rgh, Initial residual = 4.85944e-06, Final residual = 4.85944e-06, No Iterations 0
GAMG:  Solving for p_rgh, Initial residual = 4.85944e-06, Final residual = 4.85944e-06, No Iterations 0
time step continuity errors : sum local = 1.26808e-05, global = -5.15553e-06, cumulative = -0.000220877
ExecutionTime = 20.03 s  ClockTime = 21 s

Courant Number mean: 0.0593449 max: 0.915879
Interface Courant Number mean: 0.00690311 max: 0.859547
deltaT = 0.00281631
Time = 0.05

smoothSolver:  Solving for alpha.water, Initial residual = 0.0043282, Final residual = 8.6578e-10, No Iterations 4
Phase-1 volume fraction = 0.112921  Min(alpha.water) = -8.85252e-13  Max(alpha.water) = 1.00046
MULES: Correcting alpha.water
Phase-1 volume fraction = 0.112921  Min(alpha.water) = -4.83858e-06  Max(alpha.water) = 1.00046
GAMG:  Solving for p_rgh, Initial residual = 0.018728, Final residual = 0.00012638, No Iterations 2
GAMG:  Solving for p_rgh, Initial residual = 0.000925779, Final residual = 4.36403e-06, No Iterations 4
GAMG:  Solving for p_rgh, Initial residual = 8.7262e-05, Final residual = 7.7107e-06, No Iterations 1
GAMG:  Solving for p_rgh, Initial residual = 1.2287e-05, Final residual = 3.39073e-06, No Iterations 1
time step continuity errors : sum local = 8.765e-06, global = -4.99521e-06, cumulative = -0.000225872
GAMG:  Solving for p_rgh, Initial residual = 7.83902e-05, Final residual = 9.58296e-06, No Iterations 1
GAMG:  Solving for p_rgh, Initial residual = 1.50205e-05, Final residual = 4.31269e-06, No Iterations 1
GAMG:  Solving for p_rgh, Initial residual = 5.4834e-06, Final residual = 5.4834e-06, No Iterations 0
GAMG:  Solving for p_rgh, Initial residual = 5.4834e-06, Final residual = 5.4834e-06, No Iterations 0
time step continuity errors : sum local = 1.41641e-05, global = -6.21169e-06, cumulative = -0.000232084
GAMG:  Solving for p_rgh, Initial residual = 1.70356e-05, Final residual = 3.83926e-06, No Iterations 1
GAMG:  Solving for p_rgh, Initial residual = 5.14375e-06, Final residual = 5.14375e-06, No Iterations 0
GAMG:  Solving for p_rgh, Initial residual = 5.14375e-06, Final residual = 5.14375e-06, No Iterations 0
GAMG:  Solving for p_rgh, Initial residual = 5.14375e-06, Final residual = 5.14375e-06, No Iterations 0
time step continuity errors : sum local = 1.32802e-05, global = -5.55983e-06, cumulative = -0.000237644
ExecutionTime = 22.1 s  ClockTime = 23 s

Courant Number mean: 0.0617359 max: 0.938699
Interface Courant Number mean: 0.00739432 max: 0.925227
deltaT = 0.00294118
Time = 0.0529412

smoothSolver:  Solving for alpha.water, Initial residual = 0.00467514, Final residual = 1.65819e-09, No Iterations 4
Phase-1 volume fraction = 0.112978  Min(alpha.water) = -5.80893e-13  Max(alpha.water) = 1.00046
MULES: Correcting alpha.water
Phase-1 volume fraction = 0.112978  Min(alpha.water) = -6.77829e-07  Max(alpha.water) = 1.00046
GAMG:  Solving for p_rgh, Initial residual = 0.0204934, Final residual = 0.000152183, No Iterations 2
GAMG:  Solving for p_rgh, Initial residual = 0.00108569, Final residual = 6.0953e-06, No Iterations 4
GAMG:  Solving for p_rgh, Initial residual = 0.000107549, Final residual = 8.59494e-06, No Iterations 1
GAMG:  Solving for p_rgh, Initial residual = 1.37625e-05, Final residual = 3.75985e-06, No Iterations 1
time step continuity errors : sum local = 1.04709e-05, global = -5.36899e-06, cumulative = -0.000243013
GAMG:  Solving for p_rgh, Initial residual = 6.52994e-05, Final residual = 9.61006e-06, No Iterations 1
GAMG:  Solving for p_rgh, Initial residual = 1.45896e-05, Final residual = 4.53256e-06, No Iterations 1
GAMG:  Solving for p_rgh, Initial residual = 5.8057e-06, Final residual = 5.8057e-06, No Iterations 0
GAMG:  Solving for p_rgh, Initial residual = 5.8057e-06, Final residual = 5.8057e-06, No Iterations 0
time step continuity errors : sum local = 1.61584e-05, global = -7.37941e-06, cumulative = -0.000250392
GAMG:  Solving for p_rgh, Initial residual = 1.7607e-05, Final residual = 4.32075e-06, No Iterations 1
GAMG:  Solving for p_rgh, Initial residual = 5.77275e-06, Final residual = 5.77275e-06, No Iterations 0
GAMG:  Solving for p_rgh, Initial residual = 5.77275e-06, Final residual = 5.77275e-06, No Iterations 0
GAMG:  Solving for p_rgh, Initial residual = 5.77275e-06, Final residual = 5.77275e-06, No Iterations 0
time step continuity errors : sum local = 1.60585e-05, global = -6.86599e-06, cumulative = -0.000257258
ExecutionTime = 23.14 s  ClockTime = 24 s

Courant Number mean: 0.0671628 max: 1.01301
Interface Courant Number mean: 0.00801432 max: 1.00245
deltaT = 0.00276817
Time = 0.0557093

smoothSolver:  Solving for alpha.water, Initial residual = 0.00456716, Final residual = 1.36177e-09, No Iterations 4
Phase-1 volume fraction = 0.113031  Min(alpha.water) = -4.18104e-13  Max(alpha.water) = 1.00044
MULES: Correcting alpha.water
Phase-1 volume fraction = 0.113031  Min(alpha.water) = -1.24136e-06  Max(alpha.water) = 1.00044
GAMG:  Solving for p_rgh, Initial residual = 0.0174472, Final residual = 0.000121443, No Iterations 2
GAMG:  Solving for p_rgh, Initial residual = 0.000927527, Final residual = 6.04397e-06, No Iterations 4
GAMG:  Solving for p_rgh, Initial residual = 0.00011519, Final residual = 8.41287e-06, No Iterations 1
GAMG:  Solving for p_rgh, Initial residual = 1.27812e-05, Final residual = 3.17709e-06, No Iterations 1
time step continuity errors : sum local = 7.83368e-06, global = -3.78412e-06, cumulative = -0.000261042
GAMG:  Solving for p_rgh, Initial residual = 5.56666e-05, Final residual = 7.75e-06, No Iterations 1
GAMG:  Solving for p_rgh, Initial residual = 1.19895e-05, Final residual = 3.81888e-06, No Iterations 1
GAMG:  Solving for p_rgh, Initial residual = 4.82306e-06, Final residual = 4.82306e-06, No Iterations 0
GAMG:  Solving for p_rgh, Initial residual = 4.82306e-06, Final residual = 4.82306e-06, No Iterations 0
time step continuity errors : sum local = 1.18859e-05, global = -5.78585e-06, cumulative = -0.000266828
GAMG:  Solving for p_rgh, Initial residual = 1.47226e-05, Final residual = 3.71328e-06, No Iterations 1
GAMG:  Solving for p_rgh, Initial residual = 4.91462e-06, Final residual = 4.91462e-06, No Iterations 0
GAMG:  Solving for p_rgh, Initial residual = 4.91462e-06, Final residual = 4.91462e-06, No Iterations 0
GAMG:  Solving for p_rgh, Initial residual = 4.91462e-06, Final residual = 4.91462e-06, No Iterations 0
time step continuity errors : sum local = 1.21058e-05, global = -5.41346e-06, cumulative = -0.000272242
ExecutionTime = 24.12 s  ClockTime = 25 s

Courant Number mean: 0.065699 max: 0.982236
Interface Courant Number mean: 0.00836495 max: 0.951879
deltaT = 0.00276817
Time = 0.0584775

smoothSolver:  Solving for alpha.water, Initial residual = 0.00472851, Final residual = 1.38625e-09, No Iterations 4
Phase-1 volume fraction = 0.113085  Min(alpha.water) = -2.80525e-13  Max(alpha.water) = 1.00042
MULES: Correcting alpha.water
Phase-1 volume fraction = 0.113085  Min(alpha.water) = -3.33883e-06  Max(alpha.water) = 1.00042
GAMG:  Solving for p_rgh, Initial residual = 0.0176495, Final residual = 0.00015204, No Iterations 2
GAMG:  Solving for p_rgh, Initial residual = 0.0012452, Final residual = 7.90183e-06, No Iterations 4
GAMG:  Solving for p_rgh, Initial residual = 0.000130793, Final residual = 9.12379e-06, No Iterations 1
GAMG:  Solving for p_rgh, Initial residual = 1.3553e-05, Final residual = 3.74881e-06, No Iterations 1
time step continuity errors : sum local = 9.24236e-06, global = -2.9859e-06, cumulative = -0.000275228
GAMG:  Solving for p_rgh, Initial residual = 5.54342e-05, Final residual = 7.975e-06, No Iterations 1
GAMG:  Solving for p_rgh, Initial residual = 1.21038e-05, Final residual = 3.94964e-06, No Iterations 1
GAMG:  Solving for p_rgh, Initial residual = 4.97485e-06, Final residual = 4.97485e-06, No Iterations 0
GAMG:  Solving for p_rgh, Initial residual = 4.97485e-06, Final residual = 4.97485e-06, No Iterations 0
time step continuity errors : sum local = 1.22628e-05, global = -5.68948e-06, cumulative = -0.000280917
GAMG:  Solving for p_rgh, Initial residual = 1.55715e-05, Final residual = 3.91164e-06, No Iterations 1
GAMG:  Solving for p_rgh, Initial residual = 5.19214e-06, Final residual = 5.19214e-06, No Iterations 0
GAMG:  Solving for p_rgh, Initial residual = 5.19214e-06, Final residual = 5.19214e-06, No Iterations 0
GAMG:  Solving for p_rgh, Initial residual = 5.19214e-06, Final residual = 5.19214e-06, No Iterations 0
time step continuity errors : sum local = 1.27928e-05, global = -5.51749e-06, cumulative = -0.000286435
ExecutionTime = 25.09 s  ClockTime = 26 s

Courant Number mean: 0.0683703 max: 1.00214
Interface Courant Number mean: 0.00865618 max: 0.99035
deltaT = 0.00259516
Time = 0.0610727

smoothSolver:  Solving for alpha.water, Initial residual = 0.00464638, Final residual = 7.64951e-10, No Iterations 4
Phase-1 volume fraction = 0.113136  Min(alpha.water) = -2.02035e-13  Max(alpha.water) = 1.00039
MULES: Correcting alpha.water
Phase-1 volume fraction = 0.113136  Min(alpha.water) = -6.14023e-06  Max(alpha.water) = 1.00039
GAMG:  Solving for p_rgh, Initial residual = 0.0157351, Final residual = 0.000107099, No Iterations 2
GAMG:  Solving for p_rgh, Initial residual = 0.00117479, Final residual = 6.23055e-06, No Iterations 4
GAMG:  Solving for p_rgh, Initial residual = 0.000140389, Final residual = 3.09755e-06, No Iterations 2
GAMG:  Solving for p_rgh, Initial residual = 1.01589e-05, Final residual = 1.94904e-06, No Iterations 1
time step continuity errors : sum local = 4.33367e-06, global = -1.7105e-06, cumulative = -0.000288145
GAMG:  Solving for p_rgh, Initial residual = 5.07938e-05, Final residual = 6.51982e-06, No Iterations 1
GAMG:  Solving for p_rgh, Initial residual = 1.01972e-05, Final residual = 2.93734e-06, No Iterations 1
GAMG:  Solving for p_rgh, Initial residual = 3.78336e-06, Final residual = 3.78336e-06, No Iterations 0
GAMG:  Solving for p_rgh, Initial residual = 3.78336e-06, Final residual = 3.78336e-06, No Iterations 0
time step continuity errors : sum local = 8.40664e-06, global = -3.48439e-06, cumulative = -0.00029163
GAMG:  Solving for p_rgh, Initial residual = 1.31088e-05, Final residual = 3.09899e-06, No Iterations 1
GAMG:  Solving for p_rgh, Initial residual = 4.19581e-06, Final residual = 4.19581e-06, No Iterations 0
GAMG:  Solving for p_rgh, Initial residual = 4.19581e-06, Final residual = 4.19581e-06, No Iterations 0
GAMG:  Solving for p_rgh, Initial residual = 4.19581e-06, Final residual = 4.19581e-06, No Iterations 0
time step continuity errors : sum local = 9.31866e-06, global = -3.47648e-06, cumulative = -0.000295106
ExecutionTime = 26.08 s  ClockTime = 27 s

Courant Number mean: 0.066411 max: 0.946337
Interface Courant Number mean: 0.00834743 max: 0.946337
deltaT = 0.00259516
Time = 0.0636678

smoothSolver:  Solving for alpha.water, Initial residual = 0.00479314, Final residual = 8.16731e-10, No Iterations 4
Phase-1 volume fraction = 0.113187  Min(alpha.water) = -1.01612e-13  Max(alpha.water) = 1.00038
MULES: Correcting alpha.water
Phase-1 volume fraction = 0.113187  Min(alpha.water) = -2.39855e-06  Max(alpha.water) = 1.00038
GAMG:  Solving for p_rgh, Initial residual = 0.0229085, Final residual = 0.000105731, No Iterations 2
GAMG:  Solving for p_rgh, Initial residual = 0.00174204, Final residual = 9.84452e-06, No Iterations 4
GAMG:  Solving for p_rgh, Initial residual = 0.000155312, Final residual = 5.26176e-06, No Iterations 2
GAMG:  Solving for p_rgh, Initial residual = 1.21826e-05, Final residual = 2.99915e-06, No Iterations 1
time step continuity errors : sum local = 6.973e-06, global = -1.48685e-06, cumulative = -0.000296593
GAMG:  Solving for p_rgh, Initial residual = 4.81269e-05, Final residual = 6.99217e-06, No Iterations 1
GAMG:  Solving for p_rgh, Initial residual = 1.02788e-05, Final residual = 3.13482e-06, No Iterations 1
GAMG:  Solving for p_rgh, Initial residual = 4.02373e-06, Final residual = 4.02373e-06, No Iterations 0
GAMG:  Solving for p_rgh, Initial residual = 4.02373e-06, Final residual = 4.02373e-06, No Iterations 0
time step continuity errors : sum local = 9.3515e-06, global = -3.83515e-06, cumulative = -0.000300428
GAMG:  Solving for p_rgh, Initial residual = 1.31946e-05, Final residual = 3.39526e-06, No Iterations 1
GAMG:  Solving for p_rgh, Initial residual = 4.57779e-06, Final residual = 4.57779e-06, No Iterations 0
GAMG:  Solving for p_rgh, Initial residual = 4.57779e-06, Final residual = 4.57779e-06, No Iterations 0
GAMG:  Solving for p_rgh, Initial residual = 4.57779e-06, Final residual = 4.57779e-06, No Iterations 0
time step continuity errors : sum local = 1.06345e-05, global = -3.84735e-06, cumulative = -0.000304275
ExecutionTime = 27.09 s  ClockTime = 28 s

Courant Number mean: 0.068891 max: 0.964904
Interface Courant Number mean: 0.00871535 max: 0.95948
deltaT = 0.00259516
Time = 0.066263

smoothSolver:  Solving for alpha.water, Initial residual = 0.00494292, Final residual = 1.11645e-09, No Iterations 4
Phase-1 volume fraction = 0.113238  Min(alpha.water) = -4.05435e-15  Max(alpha.water) = 1.00036
MULES: Correcting alpha.water
Phase-1 volume fraction = 0.113238  Min(alpha.water) = -4.4311e-06  Max(alpha.water) = 1.00036
GAMG:  Solving for p_rgh, Initial residual = 0.0230238, Final residual = 0.000107721, No Iterations 2
GAMG:  Solving for p_rgh, Initial residual = 0.00162539, Final residual = 1.01548e-05, No Iterations 4
GAMG:  Solving for p_rgh, Initial residual = 0.000144751, Final residual = 5.23649e-06, No Iterations 2
GAMG:  Solving for p_rgh, Initial residual = 1.16955e-05, Final residual = 2.92361e-06, No Iterations 1
time step continuity errors : sum local = 6.74275e-06, global = -1.28445e-06, cumulative = -0.00030556
GAMG:  Solving for p_rgh, Initial residual = 4.91919e-05, Final residual = 7.28446e-06, No Iterations 1
GAMG:  Solving for p_rgh, Initial residual = 1.06279e-05, Final residual = 3.1694e-06, No Iterations 1
GAMG:  Solving for p_rgh, Initial residual = 4.10013e-06, Final residual = 4.10013e-06, No Iterations 0
GAMG:  Solving for p_rgh, Initial residual = 4.10013e-06, Final residual = 4.10013e-06, No Iterations 0
time step continuity errors : sum local = 9.45199e-06, global = -3.43784e-06, cumulative = -0.000308998
GAMG:  Solving for p_rgh, Initial residual = 1.36097e-05, Final residual = 3.47424e-06, No Iterations 1
GAMG:  Solving for p_rgh, Initial residual = 4.68701e-06, Final residual = 4.68701e-06, No Iterations 0
GAMG:  Solving for p_rgh, Initial residual = 4.68701e-06, Final residual = 4.68701e-06, No Iterations 0
GAMG:  Solving for p_rgh, Initial residual = 4.68701e-06, Final residual = 4.68701e-06, No Iterations 0
time step continuity errors : sum local = 1.08001e-05, global = -3.57253e-06, cumulative = -0.00031257
ExecutionTime = 28.08 s  ClockTime = 29 s

Courant Number mean: 0.0713732 max: 0.987639
Interface Courant Number mean: 0.00935536 max: 0.960186
deltaT = 0.00259516
Time = 0.0688581

smoothSolver:  Solving for alpha.water, Initial residual = 0.00512804, Final residual = 1.48094e-09, No Iterations 4
Phase-1 volume fraction = 0.11329  Min(alpha.water) = -4.40012e-20  Max(alpha.water) = 1.00036
MULES: Correcting alpha.water
Phase-1 volume fraction = 0.11329  Min(alpha.water) = -1.54347e-06  Max(alpha.water) = 1.00036
GAMG:  Solving for p_rgh, Initial residual = 0.0205708, Final residual = 0.000108873, No Iterations 2
GAMG:  Solving for p_rgh, Initial residual = 0.00143147, Final residual = 8.4691e-06, No Iterations 4
GAMG:  Solving for p_rgh, Initial residual = 0.000126342, Final residual = 4.29462e-06, No Iterations 2
GAMG:  Solving for p_rgh, Initial residual = 1.0177e-05, Final residual = 2.44468e-06, No Iterations 1
time step continuity errors : sum local = 5.52473e-06, global = -6.60349e-07, cumulative = -0.000313231
GAMG:  Solving for p_rgh, Initial residual = 5.27016e-05, Final residual = 7.75293e-06, No Iterations 1
GAMG:  Solving for p_rgh, Initial residual = 1.14325e-05, Final residual = 3.28143e-06, No Iterations 1
GAMG:  Solving for p_rgh, Initial residual = 4.28445e-06, Final residual = 4.28445e-06, No Iterations 0
GAMG:  Solving for p_rgh, Initial residual = 4.28445e-06, Final residual = 4.28445e-06, No Iterations 0
time step continuity errors : sum local = 9.67753e-06, global = -2.92806e-06, cumulative = -0.000316159
GAMG:  Solving for p_rgh, Initial residual = 1.46201e-05, Final residual = 3.59625e-06, No Iterations 1
GAMG:  Solving for p_rgh, Initial residual = 4.86159e-06, Final residual = 4.86159e-06, No Iterations 0
GAMG:  Solving for p_rgh, Initial residual = 4.86159e-06, Final residual = 4.86159e-06, No Iterations 0
GAMG:  Solving for p_rgh, Initial residual = 4.86159e-06, Final residual = 4.86159e-06, No Iterations 0
time step continuity errors : sum local = 1.09766e-05, global = -3.28654e-06, cumulative = -0.000319445
ExecutionTime = 29.08 s  ClockTime = 30 s

Courant Number mean: 0.0738468 max: 0.997316
Interface Courant Number mean: 0.00931028 max: 0.997316
deltaT = 0.00259516
Time = 0.0714533

smoothSolver:  Solving for alpha.water, Initial residual = 0.00538361, Final residual = 2.01579e-09, No Iterations 4
Phase-1 volume fraction = 0.113342  Min(alpha.water) = -3.19039e-20  Max(alpha.water) = 1.00035
MULES: Correcting alpha.water
Phase-1 volume fraction = 0.113342  Min(alpha.water) = -2.83309e-06  Max(alpha.water) = 1.00035
GAMG:  Solving for p_rgh, Initial residual = 0.0176202, Final residual = 0.000117191, No Iterations 2
GAMG:  Solving for p_rgh, Initial residual = 0.00119113, Final residual = 7.50997e-06, No Iterations 4
GAMG:  Solving for p_rgh, Initial residual = 0.000104296, Final residual = 9.65354e-06, No Iterations 1
GAMG:  Solving for p_rgh, Initial residual = 1.26587e-05, Final residual = 4.07833e-06, No Iterations 1
time step continuity errors : sum local = 9.13063e-06, global = -1.49715e-07, cumulative = -0.000319595
GAMG:  Solving for p_rgh, Initial residual = 6.27727e-05, Final residual = 9.62881e-06, No Iterations 1
GAMG:  Solving for p_rgh, Initial residual = 1.34471e-05, Final residual = 4.13814e-06, No Iterations 1
GAMG:  Solving for p_rgh, Initial residual = 5.38267e-06, Final residual = 5.38267e-06, No Iterations 0
GAMG:  Solving for p_rgh, Initial residual = 5.38267e-06, Final residual = 5.38267e-06, No Iterations 0
time step continuity errors : sum local = 1.20509e-05, global = -3.07958e-06, cumulative = -0.000322674
GAMG:  Solving for p_rgh, Initial residual = 1.6644e-05, Final residual = 4.01972e-06, No Iterations 1
GAMG:  Solving for p_rgh, Initial residual = 5.44069e-06, Final residual = 5.44069e-06, No Iterations 0
GAMG:  Solving for p_rgh, Initial residual = 5.44069e-06, Final residual = 5.44069e-06, No Iterations 0
GAMG:  Solving for p_rgh, Initial residual = 5.44069e-06, Final residual = 5.44069e-06, No Iterations 0
time step continuity errors : sum local = 1.21768e-05, global = -3.69768e-06, cumulative = -0.000326372
ExecutionTime = 30.03 s  ClockTime = 31 s

Courant Number mean: 0.0764026 max: 1.05794
Interface Courant Number mean: 0.00943487 max: 1.00033
deltaT = 0.00237889
Time = 0.0738322

smoothSolver:  Solving for alpha.water, Initial residual = 0.00509579, Final residual = 1.38013e-09, No Iterations 4
Phase-1 volume fraction = 0.11339  Min(alpha.water) = -1.19777e-16  Max(alpha.water) = 1.00033
MULES: Correcting alpha.water
Phase-1 volume fraction = 0.11339  Min(alpha.water) = -1.06608e-06  Max(alpha.water) = 1.00033
GAMG:  Solving for p_rgh, Initial residual = 0.0184639, Final residual = 0.000180156, No Iterations 2
GAMG:  Solving for p_rgh, Initial residual = 0.00134082, Final residual = 8.24182e-06, No Iterations 4
GAMG:  Solving for p_rgh, Initial residual = 0.000104282, Final residual = 8.6125e-06, No Iterations 1
GAMG:  Solving for p_rgh, Initial residual = 1.10512e-05, Final residual = 3.806e-06, No Iterations 1
time step continuity errors : sum local = 7.44926e-06, global = -9.9704e-07, cumulative = -0.000327369
GAMG:  Solving for p_rgh, Initial residual = 6.09057e-05, Final residual = 8.50406e-06, No Iterations 1
GAMG:  Solving for p_rgh, Initial residual = 1.23957e-05, Final residual = 3.80963e-06, No Iterations 1
GAMG:  Solving for p_rgh, Initial residual = 4.98617e-06, Final residual = 4.98617e-06, No Iterations 0
GAMG:  Solving for p_rgh, Initial residual = 4.98617e-06, Final residual = 4.98617e-06, No Iterations 0
time step continuity errors : sum local = 9.75992e-06, global = -2.41176e-06, cumulative = -0.000329781
GAMG:  Solving for p_rgh, Initial residual = 1.34273e-05, Final residual = 3.34658e-06, No Iterations 1
GAMG:  Solving for p_rgh, Initial residual = 4.56633e-06, Final residual = 4.56633e-06, No Iterations 0
GAMG:  Solving for p_rgh, Initial residual = 4.56633e-06, Final residual = 4.56633e-06, No Iterations 0
GAMG:  Solving for p_rgh, Initial residual = 4.56633e-06, Final residual = 4.56633e-06, No Iterations 0
time step continuity errors : sum local = 8.935e-06, global = -2.68456e-06, cumulative = -0.000332465
ExecutionTime = 30.98 s  ClockTime = 32 s

Courant Number mean: 0.0720789 max: 1.02886
Interface Courant Number mean: 0.00893838 max: 0.921421
deltaT = 0.00218065
Time = 0.0760128

smoothSolver:  Solving for alpha.water, Initial residual = 0.00476789, Final residual = 8.03137e-10, No Iterations 4
Phase-1 volume fraction = 0.113434  Min(alpha.water) = -2.19834e-17  Max(alpha.water) = 1.00032
MULES: Correcting alpha.water
Phase-1 volume fraction = 0.113434  Min(alpha.water) = -1.05848e-07  Max(alpha.water) = 1.00032
GAMG:  Solving for p_rgh, Initial residual = 0.0163631, Final residual = 0.00014878, No Iterations 2
GAMG:  Solving for p_rgh, Initial residual = 0.000887795, Final residual = 7.20906e-06, No Iterations 4
GAMG:  Solving for p_rgh, Initial residual = 8.48104e-05, Final residual = 7.50384e-06, No Iterations 1
GAMG:  Solving for p_rgh, Initial residual = 1.08856e-05, Final residual = 4.21578e-06, No Iterations 1
time step continuity errors : sum local = 6.94501e-06, global = -1.73298e-06, cumulative = -0.000334198
GAMG:  Solving for p_rgh, Initial residual = 5.73537e-05, Final residual = 8.67164e-06, No Iterations 1
GAMG:  Solving for p_rgh, Initial residual = 1.23499e-05, Final residual = 3.91128e-06, No Iterations 1
GAMG:  Solving for p_rgh, Initial residual = 5.13441e-06, Final residual = 5.13441e-06, No Iterations 0
GAMG:  Solving for p_rgh, Initial residual = 5.13441e-06, Final residual = 5.13441e-06, No Iterations 0
time step continuity errors : sum local = 8.45739e-06, global = -2.70378e-06, cumulative = -0.000336902
GAMG:  Solving for p_rgh, Initial residual = 1.25498e-05, Final residual = 3.16037e-06, No Iterations 1
GAMG:  Solving for p_rgh, Initial residual = 4.31897e-06, Final residual = 4.31897e-06, No Iterations 0
GAMG:  Solving for p_rgh, Initial residual = 4.31897e-06, Final residual = 4.31897e-06, No Iterations 0
GAMG:  Solving for p_rgh, Initial residual = 4.31897e-06, Final residual = 4.31897e-06, No Iterations 0
time step continuity errors : sum local = 7.11212e-06, global = -2.60678e-06, cumulative = -0.000339509
ExecutionTime = 31.93 s  ClockTime = 33 s

Courant Number mean: 0.0677227 max: 0.986409
Interface Courant Number mean: 0.00819824 max: 0.865282
deltaT = 0.00218065
Time = 0.0781935

smoothSolver:  Solving for alpha.water, Initial residual = 0.00477249, Final residual = 8.12177e-10, No Iterations 4
Phase-1 volume fraction = 0.113478  Min(alpha.water) = -5.05689e-20  Max(alpha.water) = 1.0003
MULES: Correcting alpha.water
Phase-1 volume fraction = 0.113478  Min(alpha.water) = -2.90676e-07  Max(alpha.water) = 1.0003
GAMG:  Solving for p_rgh, Initial residual = 0.0161878, Final residual = 5.3574e-05, No Iterations 3
GAMG:  Solving for p_rgh, Initial residual = 0.000888123, Final residual = 9.05546e-06, No Iterations 3
GAMG:  Solving for p_rgh, Initial residual = 7.04673e-05, Final residual = 7.36279e-06, No Iterations 1
GAMG:  Solving for p_rgh, Initial residual = 1.05372e-05, Final residual = 4.09734e-06, No Iterations 1
time step continuity errors : sum local = 6.69078e-06, global = -2.30107e-06, cumulative = -0.00034181
GAMG:  Solving for p_rgh, Initial residual = 5.70626e-05, Final residual = 9.05973e-06, No Iterations 1
GAMG:  Solving for p_rgh, Initial residual = 1.25035e-05, Final residual = 4.24342e-06, No Iterations 1
GAMG:  Solving for p_rgh, Initial residual = 5.56991e-06, Final residual = 5.56991e-06, No Iterations 0
GAMG:  Solving for p_rgh, Initial residual = 5.56991e-06, Final residual = 5.56991e-06, No Iterations 0
time step continuity errors : sum local = 9.09761e-06, global = -2.94656e-06, cumulative = -0.000344757
GAMG:  Solving for p_rgh, Initial residual = 1.37357e-05, Final residual = 3.50552e-06, No Iterations 1
GAMG:  Solving for p_rgh, Initial residual = 4.7729e-06, Final residual = 4.7729e-06, No Iterations 0
GAMG:  Solving for p_rgh, Initial residual = 4.7729e-06, Final residual = 4.7729e-06, No Iterations 0
GAMG:  Solving for p_rgh, Initial residual = 4.7729e-06, Final residual = 4.7729e-06, No Iterations 0
time step continuity errors : sum local = 7.79402e-06, global = -2.7796e-06, cumulative = -0.000347536
ExecutionTime = 32.9 s  ClockTime = 34 s

Courant Number mean: 0.0693794 max: 1.02083
Interface Courant Number mean: 0.00849009 max: 0.866832
deltaT = 0.00198241
Time = 0.0801759

smoothSolver:  Solving for alpha.water, Initial residual = 0.00436285, Final residual = 4.07329e-10, No Iterations 4
Phase-1 volume fraction = 0.113519  Min(alpha.water) = -1.00365e-20  Max(alpha.water) = 1.0003
MULES: Correcting alpha.water
Phase-1 volume fraction = 0.113519  Min(alpha.water) = -6.49667e-08  Max(alpha.water) = 1.0003
GAMG:  Solving for p_rgh, Initial residual = 0.0144417, Final residual = 5.48266e-05, No Iterations 3
GAMG:  Solving for p_rgh, Initial residual = 0.000871155, Final residual = 5.98422e-06, No Iterations 3
GAMG:  Solving for p_rgh, Initial residual = 7.03418e-05, Final residual = 6.31339e-06, No Iterations 1
GAMG:  Solving for p_rgh, Initial residual = 1.00779e-05, Final residual = 3.12381e-06, No Iterations 1
time step continuity errors : sum local = 4.27149e-06, global = -2.56018e-06, cumulative = -0.000350096
GAMG:  Solving for p_rgh, Initial residual = 5.33429e-05, Final residual = 7.99033e-06, No Iterations 1
GAMG:  Solving for p_rgh, Initial residual = 1.10392e-05, Final residual = 3.51945e-06, No Iterations 1
GAMG:  Solving for p_rgh, Initial residual = 4.55683e-06, Final residual = 4.55683e-06, No Iterations 0
GAMG:  Solving for p_rgh, Initial residual = 4.55683e-06, Final residual = 4.55683e-06, No Iterations 0
time step continuity errors : sum local = 6.23281e-06, global = -2.17347e-06, cumulative = -0.00035227
GAMG:  Solving for p_rgh, Initial residual = 1.15684e-05, Final residual = 2.86074e-06, No Iterations 1
GAMG:  Solving for p_rgh, Initial residual = 3.91189e-06, Final residual = 3.91189e-06, No Iterations 0
GAMG:  Solving for p_rgh, Initial residual = 3.91189e-06, Final residual = 3.91189e-06, No Iterations 0
GAMG:  Solving for p_rgh, Initial residual = 3.91189e-06, Final residual = 3.91189e-06, No Iterations 0
time step continuity errors : sum local = 5.34955e-06, global = -1.8625e-06, cumulative = -0.000354132
ExecutionTime = 33.85 s  ClockTime = 34 s

Courant Number mean: 0.0643885 max: 0.957
Interface Courant Number mean: 0.00807915 max: 0.788334
deltaT = 0.00198241
Time = 0.0821583

smoothSolver:  Solving for alpha.water, Initial residual = 0.00439597, Final residual = 4.15849e-10, No Iterations 4
Phase-1 volume fraction = 0.113559  Min(alpha.water) = -7.65533e-21  Max(alpha.water) = 1.00029
MULES: Correcting alpha.water
Phase-1 volume fraction = 0.113559  Min(alpha.water) = -3.1174e-08  Max(alpha.water) = 1.00029
GAMG:  Solving for p_rgh, Initial residual = 0.0139452, Final residual = 5.80788e-05, No Iterations 3
GAMG:  Solving for p_rgh, Initial residual = 0.00093362, Final residual = 5.94097e-06, No Iterations 3
GAMG:  Solving for p_rgh, Initial residual = 8.57671e-05, Final residual = 7.98022e-06, No Iterations 1
GAMG:  Solving for p_rgh, Initial residual = 1.21085e-05, Final residual = 3.10099e-06, No Iterations 1
time step continuity errors : sum local = 4.28264e-06, global = -2.5218e-06, cumulative = -0.000356654
GAMG:  Solving for p_rgh, Initial residual = 5.61858e-05, Final residual = 8.20397e-06, No Iterations 1
GAMG:  Solving for p_rgh, Initial residual = 1.12388e-05, Final residual = 3.55776e-06, No Iterations 1
GAMG:  Solving for p_rgh, Initial residual = 4.65005e-06, Final residual = 4.65005e-06, No Iterations 0
GAMG:  Solving for p_rgh, Initial residual = 4.65005e-06, Final residual = 4.65005e-06, No Iterations 0
time step continuity errors : sum local = 6.42551e-06, global = -2.21543e-06, cumulative = -0.00035887
GAMG:  Solving for p_rgh, Initial residual = 1.25171e-05, Final residual = 3.01896e-06, No Iterations 1
GAMG:  Solving for p_rgh, Initial residual = 4.15449e-06, Final residual = 4.15449e-06, No Iterations 0
GAMG:  Solving for p_rgh, Initial residual = 4.15449e-06, Final residual = 4.15449e-06, No Iterations 0
GAMG:  Solving for p_rgh, Initial residual = 4.15449e-06, Final residual = 4.15449e-06, No Iterations 0
time step continuity errors : sum local = 5.73971e-06, global = -1.92573e-06, cumulative = -0.000360795
ExecutionTime = 34.81 s  ClockTime = 35 s

Courant Number mean: 0.0657296 max: 0.989115
Interface Courant Number mean: 0.00867131 max: 0.793835
deltaT = 0.00198241
Time = 0.0841407

smoothSolver:  Solving for alpha.water, Initial residual = 0.00447802, Final residual = 4.39614e-10, No Iterations 4
Phase-1 volume fraction = 0.1136  Min(alpha.water) = -6.0986e-21  Max(alpha.water) = 1.00028
MULES: Correcting alpha.water
Phase-1 volume fraction = 0.1136  Min(alpha.water) = -5.63604e-08  Max(alpha.water) = 1.00028
GAMG:  Solving for p_rgh, Initial residual = 0.0162568, Final residual = 0.000148483, No Iterations 2
GAMG:  Solving for p_rgh, Initial residual = 0.00143952, Final residual = 6.19955e-06, No Iterations 4
GAMG:  Solving for p_rgh, Initial residual = 0.000109488, Final residual = 3.65083e-06, No Iterations 2
GAMG:  Solving for p_rgh, Initial residual = 1.01571e-05, Final residual = 2.33893e-06, No Iterations 1
time step continuity errors : sum local = 3.34692e-06, global = -1.5928e-06, cumulative = -0.000362388
GAMG:  Solving for p_rgh, Initial residual = 5.47561e-05, Final residual = 8.10776e-06, No Iterations 1
GAMG:  Solving for p_rgh, Initial residual = 1.115e-05, Final residual = 3.49424e-06, No Iterations 1
GAMG:  Solving for p_rgh, Initial residual = 4.61234e-06, Final residual = 4.61234e-06, No Iterations 0
GAMG:  Solving for p_rgh, Initial residual = 4.61234e-06, Final residual = 4.61234e-06, No Iterations 0
time step continuity errors : sum local = 6.60001e-06, global = -1.82883e-06, cumulative = -0.000364217
GAMG:  Solving for p_rgh, Initial residual = 1.26945e-05, Final residual = 3.00246e-06, No Iterations 1
GAMG:  Solving for p_rgh, Initial residual = 4.16532e-06, Final residual = 4.16532e-06, No Iterations 0
GAMG:  Solving for p_rgh, Initial residual = 4.16532e-06, Final residual = 4.16532e-06, No Iterations 0
GAMG:  Solving for p_rgh, Initial residual = 4.16532e-06, Final residual = 4.16532e-06, No Iterations 0
time step continuity errors : sum local = 5.95906e-06, global = -1.74403e-06, cumulative = -0.000365961
ExecutionTime = 35.78 s  ClockTime = 36 s

Courant Number mean: 0.067092 max: 1.01759
Interface Courant Number mean: 0.00852022 max: 0.80344
deltaT = 0.00176214
Time = 0.0859029

smoothSolver:  Solving for alpha.water, Initial residual = 0.00404385, Final residual = 1.91372e-10, No Iterations 4
Phase-1 volume fraction = 0.113636  Min(alpha.water) = -1.53248e-18  Max(alpha.water) = 1.00028
MULES: Correcting alpha.water
Phase-1 volume fraction = 0.113636  Min(alpha.water) = -2.863e-08  Max(alpha.water) = 1.00028
GAMG:  Solving for p_rgh, Initial residual = 0.0175963, Final residual = 0.000125292, No Iterations 2
GAMG:  Solving for p_rgh, Initial residual = 0.00126602, Final residual = 5.37518e-06, No Iterations 4
GAMG:  Solving for p_rgh, Initial residual = 8.93081e-05, Final residual = 9.98547e-06, No Iterations 1
GAMG:  Solving for p_rgh, Initial residual = 1.30295e-05, Final residual = 3.0197e-06, No Iterations 1
time step continuity errors : sum local = 3.50695e-06, global = -1.30663e-06, cumulative = -0.000367268
GAMG:  Solving for p_rgh, Initial residual = 4.4709e-05, Final residual = 6.20907e-06, No Iterations 1
GAMG:  Solving for p_rgh, Initial residual = 8.88408e-06, Final residual = 8.88408e-06, No Iterations 0
GAMG:  Solving for p_rgh, Initial residual = 8.88408e-06, Final residual = 8.88408e-06, No Iterations 0
GAMG:  Solving for p_rgh, Initial residual = 8.88408e-06, Final residual = 8.88408e-06, No Iterations 0
time step continuity errors : sum local = 1.03242e-05, global = -1.3636e-06, cumulative = -0.000368631
GAMG:  Solving for p_rgh, Initial residual = 1.40804e-05, Final residual = 3.518e-06, No Iterations 1
GAMG:  Solving for p_rgh, Initial residual = 4.92364e-06, Final residual = 4.92364e-06, No Iterations 0
GAMG:  Solving for p_rgh, Initial residual = 4.92364e-06, Final residual = 4.92364e-06, No Iterations 0
GAMG:  Solving for p_rgh, Initial residual = 4.92364e-06, Final residual = 4.92364e-06, No Iterations 0
time step continuity errors : sum local = 5.72047e-06, global = -1.46682e-06, cumulative = -0.000370098
ExecutionTime = 36.72 s  ClockTime = 37 s

Courant Number mean: 0.060627 max: 0.92537
Interface Courant Number mean: 0.00738399 max: 0.71478
deltaT = 0.00176214
Time = 0.087665

smoothSolver:  Solving for alpha.water, Initial residual = 0.00407978, Final residual = 1.91464e-10, No Iterations 4
Phase-1 volume fraction = 0.113673  Min(alpha.water) = -1.33551e-18  Max(alpha.water) = 1.00028
MULES: Correcting alpha.water
Phase-1 volume fraction = 0.113673  Min(alpha.water) = -3.95164e-08  Max(alpha.water) = 1.00028
GAMG:  Solving for p_rgh, Initial residual = 0.0166324, Final residual = 0.000119219, No Iterations 2
GAMG:  Solving for p_rgh, Initial residual = 0.0011673, Final residual = 5.58648e-06, No Iterations 4
GAMG:  Solving for p_rgh, Initial residual = 9.03364e-05, Final residual = 9.54851e-06, No Iterations 1
GAMG:  Solving for p_rgh, Initial residual = 1.43893e-05, Final residual = 3.76657e-06, No Iterations 1
time step continuity errors : sum local = 4.29588e-06, global = -1.54521e-06, cumulative = -0.000371643
GAMG:  Solving for p_rgh, Initial residual = 5.09351e-05, Final residual = 7.31836e-06, No Iterations 1
GAMG:  Solving for p_rgh, Initial residual = 1.09007e-05, Final residual = 3.02035e-06, No Iterations 1
GAMG:  Solving for p_rgh, Initial residual = 4.14804e-06, Final residual = 4.14804e-06, No Iterations 0
GAMG:  Solving for p_rgh, Initial residual = 4.14804e-06, Final residual = 4.14804e-06, No Iterations 0
time step continuity errors : sum local = 4.73324e-06, global = -1.54833e-06, cumulative = -0.000373192
GAMG:  Solving for p_rgh, Initial residual = 1.13807e-05, Final residual = 2.56941e-06, No Iterations 1
GAMG:  Solving for p_rgh, Initial residual = 3.58038e-06, Final residual = 3.58038e-06, No Iterations 0
GAMG:  Solving for p_rgh, Initial residual = 3.58038e-06, Final residual = 3.58038e-06, No Iterations 0
GAMG:  Solving for p_rgh, Initial residual = 3.58038e-06, Final residual = 3.58038e-06, No Iterations 0
time step continuity errors : sum local = 4.08503e-06, global = -1.32094e-06, cumulative = -0.000374513
ExecutionTime = 37.67 s  ClockTime = 38 s

Courant Number mean: 0.0615921 max: 0.942895
Interface Courant Number mean: 0.00753093 max: 0.712803
deltaT = 0.00176214
Time = 0.0894271

smoothSolver:  Solving for alpha.water, Initial residual = 0.00409511, Final residual = 1.87601e-10, No Iterations 4
Phase-1 volume fraction = 0.113709  Min(alpha.water) = -4.69709e-21  Max(alpha.water) = 1.00028
MULES: Correcting alpha.water
Phase-1 volume fraction = 0.113709  Min(alpha.water) = -6.36308e-08  Max(alpha.water) = 1.00028
GAMG:  Solving for p_rgh, Initial residual = 0.0153224, Final residual = 0.000109411, No Iterations 2
GAMG:  Solving for p_rgh, Initial residual = 0.00104631, Final residual = 4.85891e-06, No Iterations 4
GAMG:  Solving for p_rgh, Initial residual = 8.18433e-05, Final residual = 8.25199e-06, No Iterations 1
GAMG:  Solving for p_rgh, Initial residual = 1.24267e-05, Final residual = 3.09327e-06, No Iterations 1
time step continuity errors : sum local = 3.47168e-06, global = -1.26957e-06, cumulative = -0.000375782
GAMG:  Solving for p_rgh, Initial residual = 5.28718e-05, Final residual = 7.70567e-06, No Iterations 1
GAMG:  Solving for p_rgh, Initial residual = 1.13567e-05, Final residual = 3.02428e-06, No Iterations 1
GAMG:  Solving for p_rgh, Initial residual = 4.10137e-06, Final residual = 4.10137e-06, No Iterations 0
GAMG:  Solving for p_rgh, Initial residual = 4.10137e-06, Final residual = 4.10137e-06, No Iterations 0
time step continuity errors : sum local = 4.60533e-06, global = -1.40676e-06, cumulative = -0.000377189
GAMG:  Solving for p_rgh, Initial residual = 1.21228e-05, Final residual = 2.67859e-06, No Iterations 1
GAMG:  Solving for p_rgh, Initial residual = 3.67784e-06, Final residual = 3.67784e-06, No Iterations 0
GAMG:  Solving for p_rgh, Initial residual = 3.67784e-06, Final residual = 3.67784e-06, No Iterations 0
GAMG:  Solving for p_rgh, Initial residual = 3.67784e-06, Final residual = 3.67784e-06, No Iterations 0
time step continuity errors : sum local = 4.12938e-06, global = -1.25556e-06, cumulative = -0.000378444
ExecutionTime = 38.63 s  ClockTime = 39 s

Courant Number mean: 0.0625905 max: 0.962841
Interface Courant Number mean: 0.00782539 max: 0.7159
deltaT = 0.00176214
Time = 0.0911893

smoothSolver:  Solving for alpha.water, Initial residual = 0.00411127, Final residual = 1.80294e-10, No Iterations 4
Phase-1 volume fraction = 0.113746  Min(alpha.water) = -4.17248e-21  Max(alpha.water) = 1.00027
MULES: Correcting alpha.water
Phase-1 volume fraction = 0.113746  Min(alpha.water) = -1.81459e-08  Max(alpha.water) = 1.00027
GAMG:  Solving for p_rgh, Initial residual = 0.0138386, Final residual = 0.000103615, No Iterations 2
GAMG:  Solving for p_rgh, Initial residual = 0.000924711, Final residual = 9.98775e-06, No Iterations 3
GAMG:  Solving for p_rgh, Initial residual = 7.56188e-05, Final residual = 8.77061e-06, No Iterations 1
GAMG:  Solving for p_rgh, Initial residual = 1.21744e-05, Final residual = 3.49432e-06, No Iterations 1
time step continuity errors : sum local = 3.86778e-06, global = -1.19425e-06, cumulative = -0.000379639
GAMG:  Solving for p_rgh, Initial residual = 5.37128e-05, Final residual = 8.13922e-06, No Iterations 1
GAMG:  Solving for p_rgh, Initial residual = 1.18533e-05, Final residual = 3.2908e-06, No Iterations 1
GAMG:  Solving for p_rgh, Initial residual = 4.48734e-06, Final residual = 4.48734e-06, No Iterations 0
GAMG:  Solving for p_rgh, Initial residual = 4.48734e-06, Final residual = 4.48734e-06, No Iterations 0
time step continuity errors : sum local = 4.97409e-06, global = -1.45334e-06, cumulative = -0.000381092
GAMG:  Solving for p_rgh, Initial residual = 1.23156e-05, Final residual = 2.84167e-06, No Iterations 1
GAMG:  Solving for p_rgh, Initial residual = 3.85328e-06, Final residual = 3.85328e-06, No Iterations 0
GAMG:  Solving for p_rgh, Initial residual = 3.85328e-06, Final residual = 3.85328e-06, No Iterations 0
GAMG:  Solving for p_rgh, Initial residual = 3.85328e-06, Final residual = 3.85328e-06, No Iterations 0
time step continuity errors : sum local = 4.27126e-06, global = -1.34075e-06, cumulative = -0.000382433
ExecutionTime = 39.58 s  ClockTime = 40 s

Courant Number mean: 0.0636077 max: 0.98269
Interface Courant Number mean: 0.00808165 max: 0.723126
deltaT = 0.00176214
Time = 0.0929514

smoothSolver:  Solving for alpha.water, Initial residual = 0.00417839, Final residual = 1.73157e-10, No Iterations 4
Phase-1 volume fraction = 0.113783  Min(alpha.water) = -3.66529e-21  Max(alpha.water) = 1.00026
MULES: Correcting alpha.water
Phase-1 volume fraction = 0.113783  Min(alpha.water) = -5.71484e-08  Max(alpha.water) = 1.00026
GAMG:  Solving for p_rgh, Initial residual = 0.0136368, Final residual = 5.10911e-05, No Iterations 3
GAMG:  Solving for p_rgh, Initial residual = 0.000905624, Final residual = 6.10204e-06, No Iterations 3
GAMG:  Solving for p_rgh, Initial residual = 7.28344e-05, Final residual = 6.30169e-06, No Iterations 1
GAMG:  Solving for p_rgh, Initial residual = 1.03308e-05, Final residual = 2.56011e-06, No Iterations 1
time step continuity errors : sum local = 2.83917e-06, global = -1.06659e-06, cumulative = -0.000383499
GAMG:  Solving for p_rgh, Initial residual = 5.47246e-05, Final residual = 8.19201e-06, No Iterations 1
GAMG:  Solving for p_rgh, Initial residual = 1.20532e-05, Final residual = 3.18066e-06, No Iterations 1
GAMG:  Solving for p_rgh, Initial residual = 4.2821e-06, Final residual = 4.2821e-06, No Iterations 0
GAMG:  Solving for p_rgh, Initial residual = 4.2821e-06, Final residual = 4.2821e-06, No Iterations 0
time step continuity errors : sum local = 4.75282e-06, global = -1.29152e-06, cumulative = -0.000384791
GAMG:  Solving for p_rgh, Initial residual = 1.21137e-05, Final residual = 2.80099e-06, No Iterations 1
GAMG:  Solving for p_rgh, Initial residual = 3.80899e-06, Final residual = 3.80899e-06, No Iterations 0
GAMG:  Solving for p_rgh, Initial residual = 3.80899e-06, Final residual = 3.80899e-06, No Iterations 0
GAMG:  Solving for p_rgh, Initial residual = 3.80899e-06, Final residual = 3.80899e-06, No Iterations 0
time step continuity errors : sum local = 4.22774e-06, global = -1.19589e-06, cumulative = -0.000385987
ExecutionTime = 40.53 s  ClockTime = 41 s

Courant Number mean: 0.0646594 max: 1.00112
Interface Courant Number mean: 0.00837599 max: 0.723416
deltaT = 0.00176214
Time = 0.0947136

smoothSolver:  Solving for alpha.water, Initial residual = 0.0042826, Final residual = 1.79808e-10, No Iterations 4
Phase-1 volume fraction = 0.113819  Min(alpha.water) = -3.44148e-21  Max(alpha.water) = 1.00026
MULES: Correcting alpha.water
Phase-1 volume fraction = 0.113819  Min(alpha.water) = -1.57384e-08  Max(alpha.water) = 1.00026
GAMG:  Solving for p_rgh, Initial residual = 0.0138679, Final residual = 0.000115601, No Iterations 2
GAMG:  Solving for p_rgh, Initial residual = 0.000764599, Final residual = 4.04902e-06, No Iterations 4
GAMG:  Solving for p_rgh, Initial residual = 7.78257e-05, Final residual = 5.79628e-06, No Iterations 1
GAMG:  Solving for p_rgh, Initial residual = 1.04953e-05, Final residual = 2.44216e-06, No Iterations 1
time step continuity errors : sum local = 2.73134e-06, global = -7.90578e-07, cumulative = -0.000386777
GAMG:  Solving for p_rgh, Initial residual = 5.48835e-05, Final residual = 8.08594e-06, No Iterations 1
GAMG:  Solving for p_rgh, Initial residual = 1.17633e-05, Final residual = 3.09931e-06, No Iterations 1
GAMG:  Solving for p_rgh, Initial residual = 4.13232e-06, Final residual = 4.13232e-06, No Iterations 0
GAMG:  Solving for p_rgh, Initial residual = 4.13232e-06, Final residual = 4.13232e-06, No Iterations 0
time step continuity errors : sum local = 4.62392e-06, global = -1.23176e-06, cumulative = -0.000388009
GAMG:  Solving for p_rgh, Initial residual = 1.25465e-05, Final residual = 2.86237e-06, No Iterations 1
GAMG:  Solving for p_rgh, Initial residual = 3.82179e-06, Final residual = 3.82179e-06, No Iterations 0
GAMG:  Solving for p_rgh, Initial residual = 3.82179e-06, Final residual = 3.82179e-06, No Iterations 0
GAMG:  Solving for p_rgh, Initial residual = 3.82179e-06, Final residual = 3.82179e-06, No Iterations 0
time step continuity errors : sum local = 4.2765e-06, global = -1.19082e-06, cumulative = -0.0003892
ExecutionTime = 41.5 s  ClockTime = 42 s

Courant Number mean: 0.0657492 max: 1.01729
Interface Courant Number mean: 0.00855843 max: 0.722706
deltaT = 0.00132161
Time = 0.0960352

smoothSolver:  Solving for alpha.water, Initial residual = 0.00329026, Final residual = 2.15582e-09, No Iterations 3
Phase-1 volume fraction = 0.113847  Min(alpha.water) = -3.27324e-21  Max(alpha.water) = 1.00026
MULES: Correcting alpha.water
Phase-1 volume fraction = 0.113847  Min(alpha.water) = -1.00091e-08  Max(alpha.water) = 1.00026
GAMG:  Solving for p_rgh, Initial residual = 0.0113179, Final residual = 9.13724e-05, No Iterations 2
GAMG:  Solving for p_rgh, Initial residual = 0.000637853, Final residual = 8.26034e-06, No Iterations 3
GAMG:  Solving for p_rgh, Initial residual = 7.19971e-05, Final residual = 6.63994e-06, No Iterations 1
GAMG:  Solving for p_rgh, Initial residual = 1.03364e-05, Final residual = 3.0354e-06, No Iterations 1
time step continuity errors : sum local = 1.98239e-06, global = 4.69766e-08, cumulative = -0.000389153
GAMG:  Solving for p_rgh, Initial residual = 3.83989e-05, Final residual = 5.41158e-06, No Iterations 1
GAMG:  Solving for p_rgh, Initial residual = 7.84371e-06, Final residual = 7.84371e-06, No Iterations 0
GAMG:  Solving for p_rgh, Initial residual = 7.84371e-06, Final residual = 7.84371e-06, No Iterations 0
GAMG:  Solving for p_rgh, Initial residual = 7.84371e-06, Final residual = 7.84371e-06, No Iterations 0
time step continuity errors : sum local = 5.12672e-06, global = -3.65265e-08, cumulative = -0.000389189
GAMG:  Solving for p_rgh, Initial residual = 1.12226e-05, Final residual = 2.71979e-06, No Iterations 1
GAMG:  Solving for p_rgh, Initial residual = 3.67332e-06, Final residual = 3.67332e-06, No Iterations 0
GAMG:  Solving for p_rgh, Initial residual = 3.67332e-06, Final residual = 3.67332e-06, No Iterations 0
GAMG:  Solving for p_rgh, Initial residual = 3.67332e-06, Final residual = 3.67332e-06, No Iterations 0
time step continuity errors : sum local = 2.40118e-06, global = -3.19524e-07, cumulative = -0.000389509
ExecutionTime = 42.42 s  ClockTime = 43 s

Courant Number mean: 0.0499308 max: 0.774416
Interface Courant Number mean: 0.00617628 max: 0.543235
deltaT = 0.00132161
Time = 0.0973568

smoothSolver:  Solving for alpha.water, Initial residual = 0.00334418, Final residual = 2.32912e-09, No Iterations 3
Phase-1 volume fraction = 0.113875  Min(alpha.water) = -3.08679e-21  Max(alpha.water) = 1.00026
MULES: Correcting alpha.water
Phase-1 volume fraction = 0.113875  Min(alpha.water) = -2.0768e-08  Max(alpha.water) = 1.00026
GAMG:  Solving for p_rgh, Initial residual = 0.0116263, Final residual = 0.000107296, No Iterations 2
GAMG:  Solving for p_rgh, Initial residual = 0.00076862, Final residual = 5.77722e-06, No Iterations 4
GAMG:  Solving for p_rgh, Initial residual = 8.27207e-05, Final residual = 7.11497e-06, No Iterations 1
GAMG:  Solving for p_rgh, Initial residual = 1.07192e-05, Final residual = 3.3535e-06, No Iterations 1
time step continuity errors : sum local = 2.19962e-06, global = -1.71473e-07, cumulative = -0.00038968
GAMG:  Solving for p_rgh, Initial residual = 4.43638e-05, Final residual = 6.24737e-06, No Iterations 1
GAMG:  Solving for p_rgh, Initial residual = 8.92022e-06, Final residual = 8.92022e-06, No Iterations 0
GAMG:  Solving for p_rgh, Initial residual = 8.92022e-06, Final residual = 8.92022e-06, No Iterations 0
GAMG:  Solving for p_rgh, Initial residual = 8.92022e-06, Final residual = 8.92022e-06, No Iterations 0
time step continuity errors : sum local = 5.85289e-06, global = -4.1005e-07, cumulative = -0.000390091
GAMG:  Solving for p_rgh, Initial residual = 1.31878e-05, Final residual = 3.31145e-06, No Iterations 1
GAMG:  Solving for p_rgh, Initial residual = 4.42076e-06, Final residual = 4.42076e-06, No Iterations 0
GAMG:  Solving for p_rgh, Initial residual = 4.42076e-06, Final residual = 4.42076e-06, No Iterations 0
GAMG:  Solving for p_rgh, Initial residual = 4.42076e-06, Final residual = 4.42076e-06, No Iterations 0
time step continuity errors : sum local = 2.90069e-06, global = -6.4743e-07, cumulative = -0.000390738
ExecutionTime = 43.38 s  ClockTime = 44 s

Courant Number mean: 0.0507293 max: 0.782839
Interface Courant Number mean: 0.00618831 max: 0.548195
deltaT = 0.00132161
Time = 0.0986784

smoothSolver:  Solving for alpha.water, Initial residual = 0.00337208, Final residual = 2.5838e-09, No Iterations 3
Phase-1 volume fraction = 0.113903  Min(alpha.water) = -2.88522e-21  Max(alpha.water) = 1.00026
MULES: Correcting alpha.water
Phase-1 volume fraction = 0.113903  Min(alpha.water) = -4.49562e-08  Max(alpha.water) = 1.00026
GAMG:  Solving for p_rgh, Initial residual = 0.011771, Final residual = 0.000101897, No Iterations 2
GAMG:  Solving for p_rgh, Initial residual = 0.00082548, Final residual = 4.83607e-06, No Iterations 4
GAMG:  Solving for p_rgh, Initial residual = 8.70404e-05, Final residual = 6.87848e-06, No Iterations 1
GAMG:  Solving for p_rgh, Initial residual = 1.12483e-05, Final residual = 2.85665e-06, No Iterations 1
time step continuity errors : sum local = 1.87335e-06, global = 2.87841e-07, cumulative = -0.00039045
GAMG:  Solving for p_rgh, Initial residual = 4.74566e-05, Final residual = 6.37377e-06, No Iterations 1
GAMG:  Solving for p_rgh, Initial residual = 9.09352e-06, Final residual = 9.09352e-06, No Iterations 0
GAMG:  Solving for p_rgh, Initial residual = 9.09352e-06, Final residual = 9.09352e-06, No Iterations 0
GAMG:  Solving for p_rgh, Initial residual = 9.09352e-06, Final residual = 9.09352e-06, No Iterations 0
time step continuity errors : sum local = 5.96543e-06, global = -2.15315e-08, cumulative = -0.000390472
GAMG:  Solving for p_rgh, Initial residual = 1.38199e-05, Final residual = 3.45827e-06, No Iterations 1
GAMG:  Solving for p_rgh, Initial residual = 4.56675e-06, Final residual = 4.56675e-06, No Iterations 0
GAMG:  Solving for p_rgh, Initial residual = 4.56675e-06, Final residual = 4.56675e-06, No Iterations 0
GAMG:  Solving for p_rgh, Initial residual = 4.56675e-06, Final residual = 4.56675e-06, No Iterations 0
time step continuity errors : sum local = 2.996e-06, global = -3.31494e-07, cumulative = -0.000390803
ExecutionTime = 44.32 s  ClockTime = 45 s

Courant Number mean: 0.0515627 max: 0.787183
Interface Courant Number mean: 0.00625555 max: 0.550727
deltaT = 0.00132161
Time = 0.1

smoothSolver:  Solving for alpha.water, Initial residual = 0.00337905, Final residual = 2.87455e-09, No Iterations 3
Phase-1 volume fraction = 0.113931  Min(alpha.water) = -2.67382e-21  Max(alpha.water) = 1.00026
MULES: Correcting alpha.water
Phase-1 volume fraction = 0.113931  Min(alpha.water) = -9.71492e-09  Max(alpha.water) = 1.00026
GAMG:  Solving for p_rgh, Initial residual = 0.011394, Final residual = 8.97103e-05, No Iterations 2
GAMG:  Solving for p_rgh, Initial residual = 0.000832522, Final residual = 5.32994e-06, No Iterations 4
GAMG:  Solving for p_rgh, Initial residual = 9.05357e-05, Final residual = 7.94202e-06, No Iterations 1
GAMG:  Solving for p_rgh, Initial residual = 1.31395e-05, Final residual = 3.35504e-06, No Iterations 1
time step continuity errors : sum local = 2.19909e-06, global = 7.4895e-07, cumulative = -0.000390054
GAMG:  Solving for p_rgh, Initial residual = 5.01428e-05, Final residual = 6.68342e-06, No Iterations 1
GAMG:  Solving for p_rgh, Initial residual = 9.65482e-06, Final residual = 9.65482e-06, No Iterations 0
GAMG:  Solving for p_rgh, Initial residual = 9.65482e-06, Final residual = 9.65482e-06, No Iterations 0
GAMG:  Solving for p_rgh, Initial residual = 9.65482e-06, Final residual = 9.65482e-06, No Iterations 0
time step continuity errors : sum local = 6.33075e-06, global = 3.81822e-07, cumulative = -0.000389672
GAMG:  Solving for p_rgh, Initial residual = 1.43882e-05, Final residual = 3.68181e-06, No Iterations 1
GAMG:  Solving for p_rgh, Initial residual = 4.86984e-06, Final residual = 4.86984e-06, No Iterations 0
GAMG:  Solving for p_rgh, Initial residual = 4.86984e-06, Final residual = 4.86984e-06, No Iterations 0
GAMG:  Solving for p_rgh, Initial residual = 4.86984e-06, Final residual = 4.86984e-06, No Iterations 0
time step continuity errors : sum local = 3.19342e-06, global = 2.6741e-08, cumulative = -0.000389646
ExecutionTime = 46.3 s  ClockTime = 47 s

Courant Number mean: 0.052279 max: 0.786546
Interface Courant Number mean: 0.0061726 max: 0.551249
deltaT = 0.00147059
Time = 0.101471

smoothSolver:  Solving for alpha.water, Initial residual = 0.00375895, Final residual = 6.04718e-09, No Iterations 3
Phase-1 volume fraction = 0.113962  Min(alpha.water) = -2.43561e-21  Max(alpha.water) = 1.00026
MULES: Correcting alpha.water
Phase-1 volume fraction = 0.113962  Min(alpha.water) = -4.01574e-08  Max(alpha.water) = 1.00026
GAMG:  Solving for p_rgh, Initial residual = 0.0122817, Final residual = 8.44522e-05, No Iterations 2
GAMG:  Solving for p_rgh, Initial residual = 0.000941472, Final residual = 5.90488e-06, No Iterations 4
GAMG:  Solving for p_rgh, Initial residual = 0.000100813, Final residual = 9.73803e-06, No Iterations 1
GAMG:  Solving for p_rgh, Initial residual = 1.45139e-05, Final residual = 3.96397e-06, No Iterations 1
time step continuity errors : sum local = 3.21061e-06, global = 9.02153e-07, cumulative = -0.000388743
GAMG:  Solving for p_rgh, Initial residual = 5.64572e-05, Final residual = 8.13464e-06, No Iterations 1
GAMG:  Solving for p_rgh, Initial residual = 1.1164e-05, Final residual = 3.39194e-06, No Iterations 1
GAMG:  Solving for p_rgh, Initial residual = 4.45914e-06, Final residual = 4.45914e-06, No Iterations 0
GAMG:  Solving for p_rgh, Initial residual = 4.45914e-06, Final residual = 4.45914e-06, No Iterations 0
time step continuity errors : sum local = 3.61381e-06, global = -1.22703e-07, cumulative = -0.000388866
GAMG:  Solving for p_rgh, Initial residual = 1.21549e-05, Final residual = 2.90296e-06, No Iterations 1
GAMG:  Solving for p_rgh, Initial residual = 3.79304e-06, Final residual = 3.79304e-06, No Iterations 0
GAMG:  Solving for p_rgh, Initial residual = 3.79304e-06, Final residual = 3.79304e-06, No Iterations 0
GAMG:  Solving for p_rgh, Initial residual = 3.79304e-06, Final residual = 3.79304e-06, No Iterations 0
time step continuity errors : sum local = 3.07417e-06, global = -3.8691e-07, cumulative = -0.000389253
ExecutionTime = 47.33 s  ClockTime = 48 s

Courant Number mean: 0.0589831 max: 0.868509
Interface Courant Number mean: 0.00671816 max: 0.615393
deltaT = 0.00161765
Time = 0.103088

smoothSolver:  Solving for alpha.water, Initial residual = 0.00414483, Final residual = 1.99166e-10, No Iterations 4
Phase-1 volume fraction = 0.113997  Min(alpha.water) = -2.17834e-21  Max(alpha.water) = 1.00026
MULES: Correcting alpha.water
Phase-1 volume fraction = 0.113997  Min(alpha.water) = -1.82079e-08  Max(alpha.water) = 1.00026
GAMG:  Solving for p_rgh, Initial residual = 0.0139779, Final residual = 8.52457e-05, No Iterations 2
GAMG:  Solving for p_rgh, Initial residual = 0.00123767, Final residual = 6.74414e-06, No Iterations 4
GAMG:  Solving for p_rgh, Initial residual = 0.000111975, Final residual = 4.04117e-06, No Iterations 2
GAMG:  Solving for p_rgh, Initial residual = 1.11829e-05, Final residual = 2.34153e-06, No Iterations 1
time step continuity errors : sum local = 2.27624e-06, global = 8.46748e-07, cumulative = -0.000388406
GAMG:  Solving for p_rgh, Initial residual = 5.77758e-05, Final residual = 7.68763e-06, No Iterations 1
GAMG:  Solving for p_rgh, Initial residual = 1.11952e-05, Final residual = 3.1948e-06, No Iterations 1
GAMG:  Solving for p_rgh, Initial residual = 4.31226e-06, Final residual = 4.31226e-06, No Iterations 0
GAMG:  Solving for p_rgh, Initial residual = 4.31226e-06, Final residual = 4.31226e-06, No Iterations 0
time step continuity errors : sum local = 4.19418e-06, global = -1.82849e-07, cumulative = -0.000388589
GAMG:  Solving for p_rgh, Initial residual = 1.38729e-05, Final residual = 3.16527e-06, No Iterations 1
GAMG:  Solving for p_rgh, Initial residual = 4.17229e-06, Final residual = 4.17229e-06, No Iterations 0
GAMG:  Solving for p_rgh, Initial residual = 4.17229e-06, Final residual = 4.17229e-06, No Iterations 0
GAMG:  Solving for p_rgh, Initial residual = 4.17229e-06, Final residual = 4.17229e-06, No Iterations 0
time step continuity errors : sum local = 4.05841e-06, global = -4.72598e-07, cumulative = -0.000389062
ExecutionTime = 48.31 s  ClockTime = 49 s

Courant Number mean: 0.0656965 max: 0.95373
Interface Courant Number mean: 0.00735724 max: 0.675178
deltaT = 0.00167542
Time = 0.104764

smoothSolver:  Solving for alpha.water, Initial residual = 0.00428847, Final residual = 2.57328e-10, No Iterations 4
Phase-1 volume fraction = 0.114032  Min(alpha.water) = -1.92628e-21  Max(alpha.water) = 1.00026
MULES: Correcting alpha.water
Phase-1 volume fraction = 0.114032  Min(alpha.water) = -6.14113e-08  Max(alpha.water) = 1.00026
GAMG:  Solving for p_rgh, Initial residual = 0.0159841, Final residual = 7.49824e-05, No Iterations 2
GAMG:  Solving for p_rgh, Initial residual = 0.00119701, Final residual = 6.64139e-06, No Iterations 4
GAMG:  Solving for p_rgh, Initial residual = 0.000105773, Final residual = 3.61802e-06, No Iterations 2
GAMG:  Solving for p_rgh, Initial residual = 1.12833e-05, Final residual = 2.20211e-06, No Iterations 1
time step continuity errors : sum local = 2.30214e-06, global = 7.71367e-07, cumulative = -0.00038829
GAMG:  Solving for p_rgh, Initial residual = 5.86076e-05, Final residual = 7.52738e-06, No Iterations 1
GAMG:  Solving for p_rgh, Initial residual = 1.10335e-05, Final residual = 2.99306e-06, No Iterations 1
GAMG:  Solving for p_rgh, Initial residual = 4.03416e-06, Final residual = 4.03416e-06, No Iterations 0
GAMG:  Solving for p_rgh, Initial residual = 4.03416e-06, Final residual = 4.03416e-06, No Iterations 0
time step continuity errors : sum local = 4.21973e-06, global = -1.84344e-07, cumulative = -0.000388475
GAMG:  Solving for p_rgh, Initial residual = 1.3294e-05, Final residual = 3.03866e-06, No Iterations 1
GAMG:  Solving for p_rgh, Initial residual = 3.97063e-06, Final residual = 3.97063e-06, No Iterations 0
GAMG:  Solving for p_rgh, Initial residual = 3.97063e-06, Final residual = 3.97063e-06, No Iterations 0
GAMG:  Solving for p_rgh, Initial residual = 3.97063e-06, Final residual = 3.97063e-06, No Iterations 0
time step continuity errors : sum local = 4.15377e-06, global = -4.41648e-07, cumulative = -0.000388916
ExecutionTime = 49.27 s  ClockTime = 50 s

