/*---------------------------------------------------------------------------*\
| =========                 |                                                 |
| \\      /  F ield         | OpenFOAM: The Open Source CFD Toolbox           |
|  \\    /   O peration     | Version:  v2012                                 |
|   \\  /    A nd           | Website:  www.openfoam.com                      |
|    \\/     M anipulation  |                                                 |
\*---------------------------------------------------------------------------*/
Build  : _7bdb509494-20201222 OPENFOAM=2012
Arch   : "LSB;label=32;scalar=64"
Exec   : blockMesh
Date   : Nov 03 2021
Time   : 14:31:17
Host   : DESKTOP-68KA90C
PID    : 673
I/O    : uncollated
Case   : /mnt/d/OpenFoam/OpenFOAM_ejercicios/Mallas/Flujo_Multifasico-master
nProcs : 1
trapFpe: Floating point exception trapping enabled (FOAM_SIGFPE).
fileModificationChecking : Monitoring run-time modified files using timeStampMaster (fileModificationSkew 5, maxFileModificationPolls 20)
allowSystemOperations : Allowing user-supplied system call operations

// * * * * * * * * * * * * * * * * * * * * * * * * * * * * * * * * * * * * * //
Create time

Creating block mesh from "system/blockMeshDict"
Creating block edges
No non-planar block faces defined
Creating topology blocks
Creating topology patches

Creating block mesh topology

Check topology

	Basic statistics
		Number of internal faces : 0
		Number of boundary faces : 6
		Number of defined boundary faces : 6
		Number of undefined boundary faces : 0
	Checking patch -> block consistency

Creating block offsets
Creating merge list (topological search)...
Deleting polyMesh directory "constant/polyMesh"

Creating polyMesh from blockMesh
Creating patches
Creating cells
Creating points with scale 1
    Block 0 cell size :
        i : 0.04 .. 0.04
        j : 0.0416667 .. 0.0416667
        k : 0.04 .. 0.04


There are no merge patch pairs

Writing polyMesh with 0 cellZones
----------------
Mesh Information
----------------
  boundingBox: (-0.1 -0.1 -0.1) (1.1 0.4 0.3)
  nPoints: 4433
  nCells: 3600
  nFaces: 11580
  nInternalFaces: 10020
----------------
Patches
----------------
  patch 0 (start: 10020 size: 120) name: inlet
  patch 1 (start: 10140 size: 120) name: outlet
  patch 2 (start: 10260 size: 960) name: container
  patch 3 (start: 11220 size: 360) name: atmosphere

End

