/*---------------------------------------------------------------------------*\
| =========                 |                                                 |
| \\      /  F ield         | OpenFOAM: The Open Source CFD Toolbox           |
|  \\    /   O peration     | Version:  v2012                                 |
|   \\  /    A nd           | Website:  www.openfoam.com                      |
|    \\/     M anipulation  |                                                 |
\*---------------------------------------------------------------------------*/
Build  : _7bdb509494-20201222 OPENFOAM=2012
Arch   : "LSB;label=32;scalar=64"
Exec   : snappyHexMesh -overwrite
Date   : Nov 03 2021
Time   : 14:31:43
Host   : DESKTOP-68KA90C
PID    : 674
I/O    : uncollated
Case   : /mnt/d/OpenFoam/OpenFOAM_ejercicios/Mallas/Flujo_Multifasico-master
nProcs : 1
trapFpe: Floating point exception trapping enabled (FOAM_SIGFPE).
fileModificationChecking : Monitoring run-time modified files using timeStampMaster (fileModificationSkew 5, maxFileModificationPolls 20)
allowSystemOperations : Allowing user-supplied system call operations

// * * * * * * * * * * * * * * * * * * * * * * * * * * * * * * * * * * * * * //
Create time

Create mesh for time = 0

Read mesh in = 0.16 s

Overall mesh bounding box  : (-0.1 -0.1 -0.1) (1.1 0.4 0.3)
Relative tolerance         : 1e-06
Absolute matching distance : 1.36015e-06

Reading refinement surfaces.
Read refinement surfaces in = 0.04 s

Reading refinement shells.
Read refinement shells in = 0 s

Setting refinement level of surface to be consistent with shells.
For geometry container.stl detected 0 uncached triangles out of 22
Checked shell refinement in = 0 s

Reading features.
Read features in = 0 s


Determining initial surface intersections
-----------------------------------------

Edge intersection testing:
    Number of edges             : 11580
    Number of edges to retest   : 0
    Number of intersected edges : 0
Edge intersection testing:
    Number of edges             : 11580
    Number of edges to retest   : 11580
    Number of intersected edges : 1181
Calculated surface intersections in = 0.07 s

Initial mesh : cells:3600  faces:11580  points:4433
Cells per refinement level:
    0	3600

Adding patches for surface regions
----------------------------------

Patch Type                Region                        
----- ----                ------                        
inlet:

0     patch               inlet                         

outlet:

1     patch               outlet                        

atmosphere:

3     patch               atmosphere                    

container:

2     wall                container                     

Added patches in = 0 s

Edge intersection testing:
    Number of edges             : 11580
    Number of edges to retest   : 1560
    Number of intersected edges : 1181
Selecting decompositionMethod none [1]

Refinement phase
----------------

Found point (0.4 0.1 0.1) in cell 1572 on processor 0

Surface refinement iteration 0
------------------------------

Marked for refinement due to surface intersection          : 1666 cells.
Marked for refinement due to curvature/regions             : 0 cells.
Determined cells to refine in = 0.01 s
Selected for refinement : 1666 cells (out of 3600)
Edge intersection testing:
    Number of edges             : 49017
    Number of edges to retest   : 47096
    Number of intersected edges : 2770
Refined mesh in = 0.31 s
After refinement surface refinement iteration 0 : cells:15262  faces:49017  points:18562
Cells per refinement level:
    0	1934
    1	13328

Surface refinement iteration 1
------------------------------

Marked for refinement due to surface intersection          : 3904 cells.
Marked for refinement due to curvature/regions             : 0 cells.
Determined cells to refine in = 0.02 s
Selected for refinement : 4054 cells (out of 15262)
Edge intersection testing:
    Number of edges             : 140553
    Number of edges to retest   : 118133
    Number of intersected edges : 9352
Refined mesh in = 0.83 s
After refinement surface refinement iteration 1 : cells:43640  faces:140553  points:53412
Cells per refinement level:
    0	1784
    1	10624
    2	31232

Surface refinement iteration 2
------------------------------

Marked for refinement due to surface intersection          : 13972 cells.
Marked for refinement due to curvature/regions             : 0 cells.
Determined cells to refine in = 0.05 s
Selected for refinement : 14428 cells (out of 43640)
Edge intersection testing:
    Number of edges             : 466353
    Number of edges to retest   : 421866
    Number of intersected edges : 32868
Refined mesh in = 3.06 s
After refinement surface refinement iteration 2 : cells:144636  faces:466353  points:177392
Cells per refinement level:
    0	1764
    1	10348
    2	20748
    3	111776

Surface refinement iteration 3
------------------------------

Marked for refinement due to surface intersection          : 236 cells.
Marked for refinement due to curvature/regions             : 0 cells.
Determined cells to refine in = 0.21 s
Selected for refinement : 244 cells (out of 144636)
Edge intersection testing:
    Number of edges             : 471483
    Number of edges to retest   : 16708
    Number of intersected edges : 32868
Refined mesh in = 1.58 s
After refinement surface refinement iteration 3 : cells:146344  faces:471483  points:179106
Cells per refinement level:
    0	1764
    1	10340
    2	20576
    3	113664

Surface refinement iteration 4
------------------------------

Marked for refinement due to surface intersection          : 0 cells.
Marked for refinement due to curvature/regions             : 0 cells.
Determined cells to refine in = 0.18 s
Selected for refinement : 0 cells (out of 146344)
Stopping refining since too few cells selected.


Removing mesh beyond surface intersections
------------------------------------------

Setting cellZones according to locationsInMesh:
Location : (0.4 0.1 0.1)
    cellZone : none

For cellZone none found point (0.4 0.1 0.1) in global region 1 out of 2 regions.
Keeping all cells containing inside points
Selected for keeping : 146344 cells.
Edge intersection testing:
    Number of edges             : 471483
    Number of edges to retest   : 0
    Number of intersected edges : 32868
Setting cellZones according to locationsInMesh:
Location : (0.4 0.1 0.1)
    cellZone : none

For cellZone none found point (0.4 0.1 0.1) in global region 1 out of 2 regions.
Keeping all cells containing inside points
Selected for keeping : 114952 cells.
Edge intersection testing:
    Number of edges             : 379907
    Number of edges to retest   : 37084
    Number of intersected edges : 32868

Shell refinement iteration 0
----------------------------

Marked for refinement due to distance to explicit features : 0 cells.
Marked for refinement due to refinement shells             : 0 cells.
Determined cells to refine in = 3.25 s
Selected for internal refinement : 2686 cells (out of 114952)
Edge intersection testing:
    Number of edges             : 437987
    Number of edges to retest   : 132675
    Number of intersected edges : 34188
Refined mesh in = 1.51 s
After refinement shell refinement iteration 0 : cells:133754  faces:437987  points:170961
Cells per refinement level:
    0	1488
    1	2886
    2	20924
    3	108456

Shell refinement iteration 1
----------------------------

Marked for refinement due to distance to explicit features : 0 cells.
Marked for refinement due to refinement shells             : 0 cells.
Determined cells to refine in = 0.36 s
Selected for internal refinement : 492 cells (out of 133754)
Edge intersection testing:
    Number of edges             : 448133
    Number of edges to retest   : 32634
    Number of intersected edges : 34188
Refined mesh in = 1.34 s
After refinement shell refinement iteration 1 : cells:137198  faces:448133  points:174225
Cells per refinement level:
    0	1392
    1	3594
    2	21068
    3	111144

Shell refinement iteration 2
----------------------------

Marked for refinement due to distance to explicit features : 0 cells.
Marked for refinement due to refinement shells             : 0 cells.
Determined cells to refine in = 0.25 s
Selected for internal refinement : 2 cells (out of 137198)
Edge intersection testing:
    Number of edges             : 448166
    Number of edges to retest   : 229
    Number of intersected edges : 34188
Refined mesh in = 1.25 s
After refinement shell refinement iteration 2 : cells:137212  faces:448166  points:174231
Cells per refinement level:
    0	1390
    1	3610
    2	21068
    3	111144

Shell refinement iteration 3
----------------------------

Marked for refinement due to distance to explicit features : 0 cells.
Marked for refinement due to refinement shells             : 0 cells.
Determined cells to refine in = 0.26 s
Selected for internal refinement : 0 cells (out of 137212)
Stopping refining since too few cells selected.


Dangling coarse cells refinement iteration 0
--------------------------------------------

Determined cells to refine in = 0.03 s
Selected for refinement : 0 cells (out of 137212)
Stopping refining since too few cells selected.


Dangling coarse cells refinement iteration 0
--------------------------------------------

Determined cells to refine in = 0.03 s
Selected for refinement : 0 cells (out of 137212)
Stopping refining since too few cells selected.


Refinement transition refinement iteration 0
--------------------------------------------

Determined cells to refine in = 0.04 s
Selected for refinement : 0 cells (out of 137212)
Stopping refining since too few cells selected.


Splitting mesh at surface intersections
---------------------------------------

Introducing baffles for 34188 faces that are intersected by the surface.

Setting cellZones according to locationsInMesh:
Location : (0.4 0.1 0.1)
    cellZone : none

For cellZone none found point (0.4 0.1 0.1) in global region 1 out of 3 regions.
Edge intersection testing:
    Number of edges             : 482354
    Number of edges to retest   : 271332
    Number of intersected edges : 68376
Created baffles in = 1.87 s


After introducing baffles : cells:137212  faces:482354  points:174231
Cells per refinement level:
    0	1390
    1	3610
    2	21068
    3	111144

Introducing baffles to block off problem cells
----------------------------------------------

markFacesOnProblemCells : marked 65698 additional internal faces to be converted into baffles.
Analyzed problem cells in = 1.01 s


Introducing baffles to delete problem cells.

Edge intersection testing:
    Number of edges             : 548052
    Number of edges to retest   : 204956
    Number of intersected edges : 68376
Created baffles in = 1.38 s


After introducing baffles : cells:137212  faces:548052  points:174231
Cells per refinement level:
    0	1390
    1	3610
    2	21068
    3	111144
Setting cellZones according to locationsInMesh:
Location : (0.4 0.1 0.1)
    cellZone : none

For cellZone none found point (0.4 0.1 0.1) in global region 555 out of 32200 regions.
Edge intersection testing:
    Number of edges             : 548052
    Number of edges to retest   : 331380
    Number of intersected edges : 68376

Remove unreachable sections of mesh
-----------------------------------

Keeping all cells containing points 1((0.4 0.1 0.1))
Selected for keeping : 95140 cells.
Edge intersection testing:
    Number of edges             : 315300
    Number of edges to retest   : 0
    Number of intersected edges : 34188
Split mesh in = 3.57 s


After subsetting : cells:95140  faces:315300  points:125308
Cells per refinement level:
    0	30
    1	3150
    2	18840
    3	73120

Introducing zones for interfaces
--------------------------------

Setting cellZones according to locationsInMesh:
Location : (0.4 0.1 0.1)
    cellZone : none

For cellZone none found point (0.4 0.1 0.1) in global region 0 out of 1 regions.
Setting faceZones according to neighbouring cellZones:

Edge intersection testing:
    Number of edges             : 315300
    Number of edges to retest   : 0
    Number of intersected edges : 34188

Handling cells with snap problems
---------------------------------

Introducing baffles for 34188 faces that are intersected by the surface.

Setting cellZones according to locationsInMesh:
Location : (0.4 0.1 0.1)
    cellZone : none

For cellZone none found point (0.4 0.1 0.1) in global region 0 out of 1 regions.
Edge intersection testing:
    Number of edges             : 315300
    Number of edges to retest   : 132626
    Number of intersected edges : 34188
Created baffles in = 2.13 s


After introducing baffles : cells:95140  faces:315300  points:125308
Cells per refinement level:
    0	30
    1	3150
    2	18840
    3	73120

Introducing baffles to block off problem cells
----------------------------------------------

markFacesOnProblemCells : marked 0 additional internal faces to be converted into baffles.
Analyzed problem cells in = 0.65 s


Introducing baffles to delete problem cells.

Created baffles in = 0.1 s


After introducing baffles : cells:95140  faces:315300  points:125308
Cells per refinement level:
    0	30
    1	3150
    2	18840
    3	73120
Setting cellZones according to locationsInMesh:
Location : (0.4 0.1 0.1)
    cellZone : none

For cellZone none found point (0.4 0.1 0.1) in global region 0 out of 1 regions.
Edge intersection testing:
    Number of edges             : 315300
    Number of edges to retest   : 132626
    Number of intersected edges : 34188

Remove unreachable sections of mesh
-----------------------------------

Split mesh in = 1.48 s


After subsetting : cells:95140  faces:315300  points:125308
Cells per refinement level:
    0	30
    1	3150
    2	18840
    3	73120

Merge free-standing baffles
---------------------------

freeStandingBaffles : detected 0 free-standing baffles out of 0

Detected free-standing baffles : 0
Merged free-standing baffles in = 0.25 s


dupNonManifoldPoints : Found : 0 non-manifold points (out of 125308)
Detected unsplittable baffles : 0

Merge refined boundary faces
----------------------------

Merging 0 sets of faces.

No faces merged ...

Merging all points on surface that
- are used by only two boundary faces and
- make an angle with a cosine of more than 0.707107.

No straight edges simplified and no points removed ...
Refined mesh : cells:95140  faces:315300  points:125308
Cells per refinement level:
    0	30
    1	3150
    2	18840
    3	73120
Writing mesh to time constant
Wrote mesh in = 5.41 s.
Mesh refined in = 32.42 s.
Checking final mesh ...
Checking faces in error :
    non-orthogonality > 65  degrees                        : 0
    faces with face pyramid volume < 1e-13                 : 0
    faces with face-decomposition tet quality < 1e-15      : 0
    faces with concavity > 80  degrees                     : 0
    faces with skewness > 4   (internal) or 20  (boundary) : 0
    faces with interpolation weights (0..1)  < 0.05        : 0
    faces with volume ratio of neighbour cells < 0.01      : 0
    faces with face twist < 0.02                           : 0
    faces on cells with determinant < 0.001                : 0
Finished meshing without any errors
Finished meshing in = 34.32 s.
End

