/*---------------------------------------------------------------------------*\
  =========                 |
  \\      /  F ield         | OpenFOAM: The Open Source CFD Toolbox
   \\    /   O peration     | Website:  https://openfoam.org
    \\  /    A nd           | Version:  7
     \\/     M anipulation  |
\*---------------------------------------------------------------------------*/
Build  : 7-3bcbaf946ae9
Exec   : snappyHexMesh -overwrite
Date   : Dec 31 2022
Time   : 11:00:42
Host   : "nisan-Satellite-A505"
PID    : 4514
I/O    : uncollated
Case   : /home/nisan/OpenFOAM/nisan-7/run/Flujo_Multifasico
nProcs : 1
sigFpe : Enabling floating point exception trapping (FOAM_SIGFPE).
fileModificationChecking : Monitoring run-time modified files using timeStampMaster (fileModificationSkew 10)
allowSystemOperations : Allowing user-supplied system call operations

// * * * * * * * * * * * * * * * * * * * * * * * * * * * * * * * * * * * * * //
Create time

Create mesh for time = 0

Read mesh in = 0.03 s

Overall mesh bounding box  : (-0.1 -0.1 -0.1) (1.1 0.4 0.3)
Relative tolerance         : 1e-06
Absolute matching distance : 1.36015e-06

Reading refinement surfaces.
Read refinement surfaces in = 0.01 s

Reading refinement shells.
Read refinement shells in = 0 s

Setting refinement level of surface to be consistent with shells.
Checked shell refinement in = 0 s

Reading features.
Read edgeMesh inlet.eMesh
    points      : 4
    edges       : 4
    boundingBox : (0 0 0) (0 0.3 0.2)

Refinement level according to distance to "inlet.eMesh" (4 points, 4 edges).
    level 1 for all cells within 0 metre.
Read edgeMesh outlet.eMesh
    points      : 4
    edges       : 4
    boundingBox : (1 0 0) (1 0.3 0.2)

Refinement level according to distance to "outlet.eMesh" (4 points, 4 edges).
    level 1 for all cells within 0 metre.
Read edgeMesh container.eMesh
    points      : 16
    edges       : 37
    boundingBox : (0 0 0) (1 0.3 0.2)

Refinement level according to distance to "container.eMesh" (16 points, 37 edges).
    level 3 for all cells within 0 metre.
Read edgeMesh atmosphere.eMesh
    points      : 4
    edges       : 4
    boundingBox : (0 0 0.2) (1 0.3 0.2)

Refinement level according to distance to "atmosphere.eMesh" (4 points, 4 edges).
    level 1 for all cells within 0 metre.
Read features in = 0 s


Determining initial surface intersections
-----------------------------------------

Edge intersection testing:
    Number of edges             : 11580
    Number of edges to retest   : 11580
    Number of intersected edges : 1176
Calculated surface intersections in = 0.02 s

Initial mesh : cells:3600  faces:11580  points:4433
Cells per refinement level:
    0	3600

Adding patches for surface regions
----------------------------------

Patch Type                Region                        
----- ----                ------                        
inlet:

0     patch               inlet                         

outlet:

1     patch               outlet                        

atmosphere:

3     patch               atmosphere                    

container:

2     wall                container                     

Added patches in = 0 s

 Foam::decompositionMethod::New 
{
    method          none;
    numberOfSubdomains 1;
}

Selecting decompositionMethod none
Layer thickness specified as final layer and expansion ratio.
--> FOAM Warning : 
    From function Foam::labelHashSet Foam::polyBoundaryMesh::patchSet(const Foam::UList<Foam::wordRe>&, bool, bool) const
    in file meshes/polyMesh/polyBoundaryMesh/polyBoundaryMesh.C at line 804
    Cannot find any patch or group names matching "flange_.*"
--> FOAM Warning : 
    From function Foam::layerParameters::layerParameters(const Foam::dictionary&, const Foam::polyBoundaryMesh&)
    in file snappyHexMeshDriver/layerParameters/layerParameters.C at line 279
    Reading "/home/nisan/OpenFOAM/nisan-7/run/Flujo_Multifasico/system/snappyHexMeshDict.addLayersControls.layers" from line 241 to line 241
    Layer specification for "flange_.*" does not match any patch.
Valid patches are 
4
(
inlet
outlet
container
atmosphere
)


Refinement phase
----------------

Found point (0.4 0.1 0.1) in cell 1572 on processor 0

Feature refinement iteration 0
------------------------------

Marked for refinement due to explicit features             : 315 cells.
Determined cells to refine in = 0.05 s
Selected for feature refinement : 315 cells (out of 3600)
Edge intersection testing:
    Number of edges             : 19752
    Number of edges to retest   : 12705
    Number of intersected edges : 2893
Refined mesh in = 0.04 s
After refinement feature refinement iteration 0 : cells:5805  faces:19752  points:8373
Cells per refinement level:
    0	3285
    1	2520

Feature refinement iteration 1
------------------------------

Marked for refinement due to explicit features             : 687 cells.
Determined cells to refine in = 0.11 s
Selected for feature refinement : 1134 cells (out of 5805)
Edge intersection testing:
    Number of edges             : 48126
    Number of edges to retest   : 41642
    Number of intersected edges : 4344
Refined mesh in = 0.12 s
After refinement feature refinement iteration 1 : cells:13743  faces:48126  points:21324
Cells per refinement level:
    0	2815
    1	5616
    2	5312

Feature refinement iteration 2
------------------------------

Marked for refinement due to explicit features             : 1363 cells.
Determined cells to refine in = 0.27 s
Selected for feature refinement : 2458 cells (out of 13743)
Edge intersection testing:
    Number of edges             : 108963
    Number of edges to retest   : 94929
    Number of intersected edges : 10928
Refined mesh in = 0.3 s
After refinement feature refinement iteration 2 : cells:30949  faces:108963  points:48611
Cells per refinement level:
    0	2495
    1	7178
    2	12156
    3	9120

Feature refinement iteration 3
------------------------------

Marked for refinement due to explicit features             : 580 cells.
Determined cells to refine in = 0.55 s
Selected for feature refinement : 874 cells (out of 30949)
Edge intersection testing:
    Number of edges             : 130059
    Number of edges to retest   : 45552
    Number of intersected edges : 12569
Refined mesh in = 0.27 s
After refinement feature refinement iteration 3 : cells:37067  faces:130059  points:57680
Cells per refinement level:
    0	2446
    1	7302
    2	13743
    3	13576

Feature refinement iteration 4
------------------------------

Marked for refinement due to explicit features             : 298 cells.
Determined cells to refine in = 0.65 s
Selected for feature refinement : 388 cells (out of 37067)
Edge intersection testing:
    Number of edges             : 138963
    Number of edges to retest   : 24637
    Number of intersected edges : 13168
Refined mesh in = 0.26 s
After refinement feature refinement iteration 4 : cells:39783  faces:138963  points:61141
Cells per refinement level:
    0	2439
    1	7262
    2	14226
    3	15856

Feature refinement iteration 5
------------------------------

Marked for refinement due to explicit features             : 62 cells.
Determined cells to refine in = 0.92 s
Selected for feature refinement : 73 cells (out of 39783)
Edge intersection testing:
    Number of edges             : 140667
    Number of edges to retest   : 5293
    Number of intersected edges : 13363
Refined mesh in = 0.26 s
After refinement feature refinement iteration 5 : cells:40294  faces:140667  points:61808
Cells per refinement level:
    0	2438
    1	7260
    2	14244
    3	16352

Feature refinement iteration 6
------------------------------

Marked for refinement due to explicit features             : 29 cells.
Determined cells to refine in = 0.92 s
Selected for feature refinement : 36 cells (out of 40294)
Edge intersection testing:
    Number of edges             : 141450
    Number of edges to retest   : 2684
    Number of intersected edges : 13433
Refined mesh in = 0.25 s
After refinement feature refinement iteration 6 : cells:40546  faces:141450  points:62078
Cells per refinement level:
    0	2438
    1	7253
    2	14271
    3	16584

Feature refinement iteration 7
------------------------------

Marked for refinement due to explicit features             : 0 cells.
Determined cells to refine in = 0.94 s
Selected for feature refinement : 0 cells (out of 40546)
Stopping refining since too few cells selected.


Surface refinement iteration 0
------------------------------

Marked for refinement due to surface intersection          : 6190 cells.
Determined cells to refine in = 0.02 s
Selected for refinement : 6375 cells (out of 40546)
Edge intersection testing:
    Number of edges             : 283605
    Number of edges to retest   : 235031
    Number of intersected edges : 22438
Refined mesh in = 0.79 s
After refinement surface refinement iteration 0 : cells:85171  faces:283605  points:114383
Cells per refinement level:
    0	1872
    1	10244
    2	22295
    3	50760

Surface refinement iteration 1
------------------------------

Marked for refinement due to surface intersection          : 5872 cells.
Determined cells to refine in = 0.02 s
Selected for refinement : 5884 cells (out of 85171)
Edge intersection testing:
    Number of edges             : 412812
    Number of edges to retest   : 215942
    Number of intersected edges : 29510
Refined mesh in = 0.93 s
After refinement surface refinement iteration 1 : cells:126359  faces:412812  points:160599
Cells per refinement level:
    0	1860
    1	9996
    2	19519
    3	94984

Surface refinement iteration 2
------------------------------

Marked for refinement due to surface intersection          : 1376 cells.
Determined cells to refine in = 0.02 s
Selected for refinement : 1376 cells (out of 126359)
Edge intersection testing:
    Number of edges             : 442764
    Number of edges to retest   : 50344
    Number of intersected edges : 31350
Refined mesh in = 0.83 s
After refinement surface refinement iteration 2 : cells:135991  faces:442764  points:171135
Cells per refinement level:
    0	1860
    1	9996
    2	18143
    3	105992

Surface refinement iteration 3
------------------------------

Marked for refinement due to surface intersection          : 0 cells.
Determined cells to refine in = 0.03 s
Selected for refinement : 0 cells (out of 135991)
Stopping refining since too few cells selected.


Removing mesh beyond surface intersections
------------------------------------------

Found point (0.4 0.1 0.1) in global region 1 out of 2 regions.
Keeping all cells in region 1 containing point (0.4 0.1 0.1)
Selected for keeping : 102877 cells.
Edge intersection testing:
    Number of edges             : 341674
    Number of edges to retest   : 34643
    Number of intersected edges : 31350

Shell refinement iteration 0
----------------------------

Marked for refinement due to distance to explicit features : 0 cells.
Marked for refinement due to refinement shells             : 0 cells.
Determined cells to refine in = 3.88 s
Selected for internal refinement : 3340 cells (out of 102877)
Edge intersection testing:
    Number of edges             : 410593
    Number of edges to retest   : 173221
    Number of intersected edges : 32802
Refined mesh in = 0.88 s
After refinement shell refinement iteration 0 : cells:126257  faces:410593  points:158374
Cells per refinement level:
    0	128
    1	3369
    2	18118
    3	104642

Shell refinement iteration 1
----------------------------

Marked for refinement due to distance to explicit features : 0 cells.
Marked for refinement due to refinement shells             : 0 cells.
Determined cells to refine in = 0.13 s
Selected for internal refinement : 291 cells (out of 126257)
Edge intersection testing:
    Number of edges             : 416074
    Number of edges to retest   : 23662
    Number of intersected edges : 32802
Refined mesh in = 0.72 s
After refinement shell refinement iteration 1 : cells:128294  faces:416074  points:159824
Cells per refinement level:
    0	30
    1	4014
    2	19176
    3	105074

Shell refinement iteration 2
----------------------------

Marked for refinement due to distance to explicit features : 0 cells.
Marked for refinement due to refinement shells             : 0 cells.
Determined cells to refine in = 0.13 s
Selected for internal refinement : 0 cells (out of 128294)
Stopping refining since too few cells selected.


Dangling coarse cells refinement iteration 0
--------------------------------------------

Determined cells to refine in = 0.01 s
Selected for refinement : 0 cells (out of 128294)
Stopping refining since too few cells selected.


Dangling coarse cells refinement iteration 0
--------------------------------------------

Determined cells to refine in = 0.01 s
Selected for refinement : 0 cells (out of 128294)
Stopping refining since too few cells selected.


Splitting mesh at surface intersections
---------------------------------------

Introducing baffles for 32802 faces that are intersected by the surface.

Edge intersection testing:
    Number of edges             : 448876
    Number of edges to retest   : 260604
    Number of intersected edges : 65604
Created baffles in = 0.91 s


After introducing baffles : cells:128294  faces:448876  points:159824
Cells per refinement level:
    0	30
    1	4014
    2	19176
    3	105074

Introducing baffles to block off problem cells
----------------------------------------------

markFacesOnProblemCells : marked 65868 additional internal faces to be converted into baffles.
Analyzed problem cells in = 0.49 s


Introducing baffles to delete problem cells.

Edge intersection testing:
    Number of edges             : 514744
    Number of edges to retest   : 204677
    Number of intersected edges : 65604
Created baffles in = 0.91 s


After introducing baffles : cells:128294  faces:514744  points:159824
Cells per refinement level:
    0	30
    1	4014
    2	19176
    3	105074

Remove unreachable sections of mesh
-----------------------------------

Keeping all cells in region 1 containing point (0.4 0.1 0.1)
Selected for keeping : 92074 cells.
Edge intersection testing:
    Number of edges             : 304872
    Number of edges to retest   : 0
    Number of intersected edges : 32802
Split mesh in = 3.86 s


After subsetting : cells:92074  faces:304872  points:121040
Cells per refinement level:
    0	30
    1	3330
    2	17658
    3	71056

Handling cells with snap problems
---------------------------------

Introducing baffles for 32802 faces that are intersected by the surface.

Edge intersection testing:
    Number of edges             : 304872
    Number of edges to retest   : 127316
    Number of intersected edges : 32802
Created baffles in = 0.56 s


After introducing baffles : cells:92074  faces:304872  points:121040
Cells per refinement level:
    0	30
    1	3330
    2	17658
    3	71056

Introducing baffles to block off problem cells
----------------------------------------------

markFacesOnProblemCells : marked 0 additional internal faces to be converted into baffles.
Analyzed problem cells in = 0.36 s


Introducing baffles to delete problem cells.

Edge intersection testing:
    Number of edges             : 304872
    Number of edges to retest   : 0
    Number of intersected edges : 32802
Created baffles in = 0.41 s


After introducing baffles : cells:92074  faces:304872  points:121040
Cells per refinement level:
    0	30
    1	3330
    2	17658
    3	71056

Remove unreachable sections of mesh
-----------------------------------

Keeping all cells in region 0 containing point (0.4 0.1 0.1)
Selected for keeping : 92074 cells.
Edge intersection testing:
    Number of edges             : 304872
    Number of edges to retest   : 0
    Number of intersected edges : 32802
Split mesh in = 3.02 s


After subsetting : cells:92074  faces:304872  points:121040
Cells per refinement level:
    0	30
    1	3330
    2	17658
    3	71056

Merge free-standing baffles
---------------------------

freeStandingBaffles : detected 0 free-standing baffles out of 0

Detected free-standing baffles : 0
Merged free-standing baffles in = 0.15 s


dupNonManifoldPoints : Found : 0 non-manifold points (out of 121040)
Edge intersection testing:
    Number of edges             : 304872
    Number of edges to retest   : 0
    Number of intersected edges : 32802
Detected unsplittable baffles : 0

Merge refined boundary faces
----------------------------

Merging 0 sets of faces.

No faces merged ...

Merging all points on surface that
- are used by only two boundary faces and
- make an angle with a cosine of more than 0.707107.

No straight edges simplified and no points removed ...
Refined mesh : cells:92074  faces:304872  points:121040
Cells per refinement level:
    0	30
    1	3330
    2	17658
    3	71056
Writing mesh to time constant
Wrote mesh in = 3.04 s.
Mesh refined in = 28.02 s.

Morphing phase
--------------


Snapping to features in 10 iterations ...
Constructing mesh displacer ...
Using mesh parameters 
{
    maxNonOrtho     50;
    maxBoundarySkewness 20;
    maxInternalSkewness 4;
    maxConcave      80;
    minVol          1e-13;
    minTetQuality   1e-15;
    minArea         -1;
    minTwist        0.02;
    minDeterminant  0.001;
    minFaceWeight   0.05;
    minVolRatio     0.01;
    minTriangleTwist -1;
    nSmoothScale    4;
    errorReduction  0.75;
    relaxed
    {
        maxNonOrtho     50;
    }
}


Checking initial mesh ...
Checking faces in error :
    non-orthogonality > 50  degrees                        : 0
    faces with face pyramid volume < 1e-13                 : 0
    faces with face-decomposition tet quality < 1e-15      : 0
    faces with concavity > 80  degrees                     : 0
    faces with skewness > 4   (internal) or 20  (boundary) : 0
    faces with interpolation weights (0..1)  < 0.05        : 0
    faces with volume ratio of neighbour cells < 0.01      : 0
    faces with face twist < 0.02                           : 0
    faces on cells with determinant < 0.001                : 0
Detected 0 illegal faces (concave, zero area or negative cell pyramid volume)
Checked initial mesh in = 0.82 s


Smoothing patch points ...
Smoothing iteration 0
Found 0 non-manifold point(s).

Scaling iteration 0
Moving mesh using displacement scaling : min:1  max:1
Checking faces in error :
    non-orthogonality > 50  degrees                        : 0
    faces with face pyramid volume < 1e-13                 : 0
    faces with face-decomposition tet quality < 1e-15      : 0
    faces with concavity > 80  degrees                     : 0
    faces with skewness > 4   (internal) or 20  (boundary) : 0
    faces with interpolation weights (0..1)  < 0.05        : 0
    faces with volume ratio of neighbour cells < 0.01      : 0
    faces with face twist < 0.02                           : 0
    faces on cells with determinant < 0.001                : 0
Successfully moved mesh

Smoothing iteration 1
Found 0 non-manifold point(s).

Scaling iteration 0
Moving mesh using displacement scaling : min:1  max:1
Checking faces in error :
    non-orthogonality > 50  degrees                        : 0
    faces with face pyramid volume < 1e-13                 : 0
    faces with face-decomposition tet quality < 1e-15      : 0
    faces with concavity > 80  degrees                     : 0
    faces with skewness > 4   (internal) or 20  (boundary) : 0
    faces with interpolation weights (0..1)  < 0.05        : 0
    faces with volume ratio of neighbour cells < 0.01      : 0
    faces with face twist < 0.02                           : 0
    faces on cells with determinant < 0.001                : 0
Successfully moved mesh

Smoothing iteration 2
Found 0 non-manifold point(s).

Scaling iteration 0
Moving mesh using displacement scaling : min:1  max:1
Checking faces in error :
    non-orthogonality > 50  degrees                        : 0
    faces with face pyramid volume < 1e-13                 : 0
    faces with face-decomposition tet quality < 1e-15      : 0
    faces with concavity > 80  degrees                     : 0
    faces with skewness > 4   (internal) or 20  (boundary) : 0
    faces with interpolation weights (0..1)  < 0.05        : 0
    faces with volume ratio of neighbour cells < 0.01      : 0
    faces with face twist < 0.02                           : 0
    faces on cells with determinant < 0.001                : 0
Successfully moved mesh

Patch points smoothed in = 3.01 s



Morph iteration 0
-----------------
Calculating patchDisplacement as distance to nearest surface point ...
Wanted displacement : average:0.000631417 min:1.41857e-05 max:0.00941558
Calculated surface displacement in = 0.03 s


Detecting near surfaces ...
Overriding nearest with intersection of close gaps at 0 out of 33050 points.
Overriding displacement on features :
   implicit features    : false
   explicit features    : true
   multi-patch features : false

Detected 0 baffle edges out of 65850 edges.
Initially selected 1424 points out of 33050 for reverse attraction.
Selected 4224 points out of 33050 for reverse attraction.
Stringing feature edges : changed 0 points
Attraction:
     linear   : max:(0.00941558 0 2.77556e-17) avg:(-7.01706e-06 2.83037e-09 -0.000140618)
     feature  : max:(0.00941558 0 0.00941558) avg:(1.86017e-19 -2.67111e-13 -3.58215e-06)
Feature analysis : total master points:33050 attraction to :
    feature point   : 16
    feature edge    : 1408
    nearest surface : 0
    rest            : 31626

--> FOAM Warning : Displacement (-0.000138896 1.04083e-18 1.38896e-05) at mesh point 334 coord (0.501389 0.025 0.098611) points through the surrounding patch faces
Smoothing displacement ...
Iteration 0
Iteration 10
Iteration 20
Iteration 30
Iteration 40
Iteration 50
Iteration 60
Iteration 70
Iteration 80
Iteration 90
Iteration 100
Iteration 110
Iteration 120
Iteration 130
Iteration 140
Iteration 150
Iteration 160
Iteration 170
Iteration 180
Iteration 190
Iteration 200
Iteration 210
Iteration 220
Iteration 230
Iteration 240
Iteration 250
Iteration 260
Iteration 270
Iteration 280
Iteration 290
Displacement smoothed in = 3.93 s


Moving mesh ...

Iteration 0
Moving mesh using displacement scaling : min:1  max:1
Checking faces in error :
    non-orthogonality > 50  degrees                        : 0
    faces with face pyramid volume < 1e-13                 : 0
    faces with face-decomposition tet quality < 1e-15      : 0
    faces with concavity > 80  degrees                     : 0
    faces with skewness > 4   (internal) or 20  (boundary) : 0
    faces with interpolation weights (0..1)  < 0.05        : 0
    faces with volume ratio of neighbour cells < 0.01      : 0
    faces with face twist < 0.02                           : 0
    faces on cells with determinant < 0.001                : 0
Successfully moved mesh
Moved mesh in = 1.01 s



Morph iteration 1
-----------------
Calculating patchDisplacement as distance to nearest surface point ...
Wanted displacement : average:0.000574153 min:2.59241e-05 max:0.00847402
Calculated surface displacement in = 0.02 s


Detecting near surfaces ...
Overriding nearest with intersection of close gaps at 0 out of 33050 points.
Overriding displacement on features :
   implicit features    : false
   explicit features    : true
   multi-patch features : false

Detected 0 baffle edges out of 65850 edges.
Initially selected 1424 points out of 33050 for reverse attraction.
Selected 4224 points out of 33050 for reverse attraction.
Stringing feature edges : changed 0 points
Attraction:
     linear   : max:(0.00847402 0 0) avg:(-5.48542e-06 2.56814e-09 -0.000126268)
     feature  : max:(0.00847402 0 0.00932143) avg:(6.31605e-07 -1.7056e-11 -3.00599e-06)
Feature analysis : total master points:33050 attraction to :
    feature point   : 16
    feature edge    : 1408
    nearest surface : 0
    rest            : 31626

--> FOAM Warning : Displacement (-0.000250013 2.08167e-18 5.50028e-05) at mesh point 334 coord (0.50125 0.025 0.0986249) points through the surrounding patch faces
Smoothing displacement ...
Iteration 0
Iteration 10
Iteration 20
Iteration 30
Iteration 40
Iteration 50
Iteration 60
Iteration 70
Iteration 80
Iteration 90
Iteration 100
Iteration 110
Iteration 120
Iteration 130
Iteration 140
Iteration 150
Iteration 160
Iteration 170
Iteration 180
Iteration 190
Iteration 200
Iteration 210
Iteration 220
Iteration 230
Iteration 240
Iteration 250
Iteration 260
Iteration 270
Iteration 280
Iteration 290
Displacement smoothed in = 4.09 s


Moving mesh ...

Iteration 0
Moving mesh using displacement scaling : min:1  max:1
Checking faces in error :
    non-orthogonality > 50  degrees                        : 0
    faces with face pyramid volume < 1e-13                 : 0
    faces with face-decomposition tet quality < 1e-15      : 0
    faces with concavity > 80  degrees                     : 0
    faces with skewness > 4   (internal) or 20  (boundary) : 0
    faces with interpolation weights (0..1)  < 0.05        : 0
    faces with volume ratio of neighbour cells < 0.01      : 0
    faces with face twist < 0.02                           : 0
    faces on cells with determinant < 0.001                : 0
Successfully moved mesh
Moved mesh in = 1.05 s



Morph iteration 2
-----------------
Calculating patchDisplacement as distance to nearest surface point ...
Wanted displacement : average:0.000471912 min:2.89549e-05 max:0.00677922
Calculated surface displacement in = 0.03 s


Detecting near surfaces ...
Overriding nearest with intersection of close gaps at 0 out of 33050 points.
Overriding displacement on features :
   implicit features    : false
   explicit features    : true
   multi-patch features : false

Detected 0 baffle edges out of 65850 edges.
Initially selected 1424 points out of 33050 for reverse attraction.
Selected 4224 points out of 33050 for reverse attraction.
Stringing feature edges : changed 0 points
Attraction:
     linear   : max:(0.00677922 0 0) avg:(-3.03109e-06 2.09048e-09 -0.000100569)
     feature  : max:(0.00677922 0 0.00894857) avg:(1.61691e-06 -4.35393e-11 -2.02121e-06)
Feature analysis : total master points:33050 attraction to :
    feature point   : 16
    feature edge    : 1408
    nearest surface : 0
    rest            : 31626

--> FOAM Warning : Displacement (-0.000300016 2.08167e-18 0.000118806) at mesh point 334 coord (0.501 0.025 0.0986799) points through the surrounding patch faces
Smoothing displacement ...
Iteration 0
Iteration 10
Iteration 20
Iteration 30
Iteration 40
Iteration 50
Iteration 60
Iteration 70
Iteration 80
Iteration 90
Iteration 100
Iteration 110
Iteration 120
Iteration 130
Iteration 140
Iteration 150
Iteration 160
Iteration 170
Iteration 180
Iteration 190
Iteration 200
Iteration 210
Iteration 220
Iteration 230
Iteration 240
Iteration 250
Iteration 260
Iteration 270
Iteration 280
Iteration 290
Displacement smoothed in = 4.65 s


Moving mesh ...

Iteration 0
Moving mesh using displacement scaling : min:1  max:1
Checking faces in error :
    non-orthogonality > 50  degrees                        : 0
    faces with face pyramid volume < 1e-13                 : 0
    faces with face-decomposition tet quality < 1e-15      : 0
    faces with concavity > 80  degrees                     : 0
    faces with skewness > 4   (internal) or 20  (boundary) : 0
    faces with interpolation weights (0..1)  < 0.05        : 0
    faces with volume ratio of neighbour cells < 0.01      : 0
    faces with face twist < 0.02                           : 0
    faces on cells with determinant < 0.001                : 0
Successfully moved mesh
Moved mesh in = 1.17 s



Morph iteration 3
-----------------
Calculating patchDisplacement as distance to nearest surface point ...
Wanted displacement : average:0.000341556 min:4.6954e-05 max:0.00474545
Calculated surface displacement in = 0.03 s


Detecting near surfaces ...
Overriding nearest with intersection of close gaps at 0 out of 33050 points.
Overriding displacement on features :
   implicit features    : false
   explicit features    : true
   multi-patch features : false

Detected 0 baffle edges out of 65850 edges.
Initially selected 1424 points out of 33050 for reverse attraction.
Selected 4224 points out of 33050 for reverse attraction.
Stringing feature edges : changed 0 points
Attraction:
     linear   : max:(0.00474545 0 0) avg:(-7.19552e-07 1.41852e-09 -7.00384e-05)
     feature  : max:(0.00474545 0 0.0081432) avg:(2.53248e-06 -6.9714e-11 -9.31539e-07)
Feature analysis : total master points:33050 attraction to :
    feature point   : 16
    feature edge    : 1408
    nearest surface : 0
    rest            : 31626

--> FOAM Warning : Displacement (-0.000280014 1.38778e-18 0.000192202) at mesh point 334 coord (0.5007 0.025 0.0987987) points through the surrounding patch faces
Smoothing displacement ...
Iteration 0
Iteration 10
Iteration 20
Iteration 30
Iteration 40
Iteration 50
Iteration 60
Iteration 70
Iteration 80
Iteration 90
Iteration 100
Iteration 110
Iteration 120
Iteration 130
Iteration 140
Iteration 150
Iteration 160
Iteration 170
Iteration 180
Iteration 190
Iteration 200
Iteration 210
Iteration 220
Iteration 230
Iteration 240
Iteration 250
Iteration 260
Iteration 270
Iteration 280
Iteration 290
Displacement smoothed in = 3.88 s


Moving mesh ...

Iteration 0
Moving mesh using displacement scaling : min:1  max:1
Checking faces in error :
    non-orthogonality > 50  degrees                        : 0
    faces with face pyramid volume < 1e-13                 : 0
    faces with face-decomposition tet quality < 1e-15      : 0
    faces with concavity > 80  degrees                     : 0
    faces with skewness > 4   (internal) or 20  (boundary) : 0
    faces with interpolation weights (0..1)  < 0.05        : 0
    faces with volume ratio of neighbour cells < 0.01      : 0
    faces with face twist < 0.02                           : 0
    faces on cells with determinant < 0.001                : 0
Successfully moved mesh
Moved mesh in = 0.94 s



Morph iteration 4
-----------------
Calculating patchDisplacement as distance to nearest surface point ...
Wanted displacement : average:0.000210491 min:1.61401e-06 max:0.00284727
Calculated surface displacement in = 0.03 s


Detecting near surfaces ...
Overriding nearest with intersection of close gaps at 0 out of 33050 points.
Overriding displacement on features :
   implicit features    : false
   explicit features    : true
   multi-patch features : false

Detected 0 baffle edges out of 65850 edges.
Initially selected 1424 points out of 33050 for reverse attraction.
Selected 4224 points out of 33050 for reverse attraction.
Stringing feature edges : changed 0 points
Attraction:
     linear   : max:(0.00284727 0 0) avg:(4.6462e-07 6.75599e-10 -4.20209e-05)
     feature  : max:(0.00284727 0 0.00684029) avg:(2.97616e-06 -8.66701e-11 -5.62809e-08)
Feature analysis : total master points:33050 attraction to :
    feature point   : 16
    feature edge    : 1408
    nearest surface : 0
    rest            : 31626

--> FOAM Warning : Displacement (-0.000210011 1.73472e-18 0.000252265) at mesh point 334 coord (0.50042 0.025 0.0989909) points through the surrounding patch faces
Smoothing displacement ...
Iteration 0
Iteration 10
Iteration 20
Iteration 30
Iteration 40
Iteration 50
Iteration 60
Iteration 70
Iteration 80
Iteration 90
Iteration 100
Iteration 110
Iteration 120
Iteration 130
Iteration 140
Iteration 150
Iteration 160
Iteration 170
Iteration 180
Iteration 190
Iteration 200
Iteration 210
Iteration 220
Iteration 230
Iteration 240
Iteration 250
Iteration 260
Iteration 270
Iteration 280
Iteration 290
Displacement smoothed in = 3.81 s


Moving mesh ...

Iteration 0
Moving mesh using displacement scaling : min:1  max:1
Checking faces in error :
    non-orthogonality > 50  degrees                        : 0
    faces with face pyramid volume < 1e-13                 : 0
    faces with face-decomposition tet quality < 1e-15      : 0
    faces with concavity > 80  degrees                     : 0
    faces with skewness > 4   (internal) or 20  (boundary) : 0
    faces with interpolation weights (0..1)  < 0.05        : 0
    faces with volume ratio of neighbour cells < 0.01      : 0
    faces with face twist < 0.02                           : 0
    faces on cells with determinant < 0.001                : 0
Successfully moved mesh
Moved mesh in = 0.95 s



Morph iteration 5
-----------------
Calculating patchDisplacement as distance to nearest surface point ...
Wanted displacement : average:0.000106402 min:6.39315e-09 max:0.00142364
Calculated surface displacement in = 0.03 s


Detecting near surfaces ...
Overriding nearest with intersection of close gaps at 0 out of 33050 points.
Overriding displacement on features :
   implicit features    : false
   explicit features    : true
   multi-patch features : false

Detected 0 baffle edges out of 65850 edges.
Initially selected 1424 points out of 33050 for reverse attraction.
Selected 4224 points out of 33050 for reverse attraction.
Stringing feature edges : changed 0 points
Attraction:
     linear   : max:(0.00142364 0 0) avg:(2.3723e-07 1.55885e-10 -2.15295e-05)
     feature  : max:(0.00142364 0 0.00513021) avg:(2.76267e-06 -9.00451e-11 4.11672e-07)
Feature analysis : total master points:33050 attraction to :
    feature point   : 16
    feature edge    : 1408
    nearest surface : 0
    rest            : 31626

--> FOAM Warning : Displacement (3.03547e-05 6.79337e-06 -0.000172072) at mesh point 38630 coord (-0.00016413 0.0145199 0.00513545) points through the surrounding patch faces
Smoothing displacement ...
Iteration 0
Iteration 10
Iteration 20
Iteration 30
Iteration 40
Iteration 50
Iteration 60
Iteration 70
Iteration 80
Iteration 90
Iteration 100
Iteration 110
Iteration 120
Iteration 130
Iteration 140
Iteration 150
Iteration 160
Iteration 170
Iteration 180
Iteration 190
Iteration 200
Iteration 210
Iteration 220
Iteration 230
Iteration 240
Iteration 250
Iteration 260
Iteration 270
Iteration 280
Iteration 290
Displacement smoothed in = 3.86 s


Moving mesh ...

Iteration 0
Moving mesh using displacement scaling : min:1  max:1
Checking faces in error :
    non-orthogonality > 50  degrees                        : 0
    faces with face pyramid volume < 1e-13                 : 0
    faces with face-decomposition tet quality < 1e-15      : 0
    faces with concavity > 80  degrees                     : 0
    faces with skewness > 4   (internal) or 20  (boundary) : 0
    faces with interpolation weights (0..1)  < 0.05        : 0
    faces with volume ratio of neighbour cells < 0.01      : 0
    faces with face twist < 0.02                           : 0
    faces on cells with determinant < 0.001                : 0
Successfully moved mesh
Moved mesh in = 0.9 s



Morph iteration 6
-----------------
Calculating patchDisplacement as distance to nearest surface point ...
Wanted displacement : average:5.50812e-05 min:1.01682e-07 max:0.000569454
Calculated surface displacement in = 0.03 s


Detecting near surfaces ...
Overriding nearest with intersection of close gaps at 0 out of 33050 points.
Overriding displacement on features :
   implicit features    : false
   explicit features    : true
   multi-patch features : false

Detected 0 baffle edges out of 65850 edges.
Initially selected 1424 points out of 33050 for reverse attraction.
Selected 4224 points out of 33050 for reverse attraction.
Stringing feature edges : changed 0 points
Attraction:
     linear   : max:(0.000569454 0 -2.77556e-17) avg:(-7.72265e-07 3.04782e-11 -9.57199e-06)
     feature  : max:(0.000569454 0 0.00328334) avg:(2.02277e-06 -8.08596e-11 4.81333e-07)
Feature analysis : total master points:33050 attraction to :
    feature point   : 16
    feature edge    : 1408
    nearest surface : 0
    rest            : 31626

--> FOAM Warning : Displacement (7.86421e-05 2.46427e-05 -0.000142673) at mesh point 56797 coord (-0.000169232 0.00930379 0.00500996) points through the surrounding patch faces
Smoothing displacement ...
Iteration 0
Iteration 10
Iteration 20
Iteration 30
Iteration 40
Iteration 50
Iteration 60
Iteration 70
Iteration 80
Iteration 90
Iteration 100
Iteration 110
Iteration 120
Iteration 130
Iteration 140
Iteration 150
Iteration 160
Iteration 170
Iteration 180
Iteration 190
Iteration 200
Iteration 210
Iteration 220
Iteration 230
Iteration 240
Iteration 250
Iteration 260
Iteration 270
Iteration 280
Iteration 290
Displacement smoothed in = 3.93 s


Moving mesh ...

Iteration 0
Moving mesh using displacement scaling : min:1  max:1
Checking faces in error :
    non-orthogonality > 50  degrees                        : 0
    faces with face pyramid volume < 1e-13                 : 0
    faces with face-decomposition tet quality < 1e-15      : 0
    faces with concavity > 80  degrees                     : 0
    faces with skewness > 4   (internal) or 20  (boundary) : 0
    faces with interpolation weights (0..1)  < 0.05        : 0
    faces with volume ratio of neighbour cells < 0.01      : 0
    faces with face twist < 0.02                           : 0
    faces on cells with determinant < 0.001                : 0
Successfully moved mesh
Moved mesh in = 0.91 s



Morph iteration 7
-----------------
Calculating patchDisplacement as distance to nearest surface point ...
Wanted displacement : average:3.0989e-05 min:2.79956e-08 max:0.000794942
Calculated surface displacement in = 0.03 s


Detecting near surfaces ...
Overriding nearest with intersection of close gaps at 0 out of 33050 points.
Overriding displacement on features :
   implicit features    : false
   explicit features    : true
   multi-patch features : false

Detected 0 baffle edges out of 65850 edges.
Initially selected 1424 points out of 33050 for reverse attraction.
Selected 4224 points out of 33050 for reverse attraction.
Stringing feature edges : changed 0 points
Attraction:
     linear   : max:(3.46945e-18 0 -0.000794942) avg:(-1.50668e-06 1.11924e-10 -3.94637e-06)
     feature  : max:(0.000170836 0 0.0016745) avg:(1.12074e-06 -6.34942e-11 3.21732e-07)
Feature analysis : total master points:33050 attraction to :
    feature point   : 16
    feature edge    : 1408
    nearest surface : 0
    rest            : 31626

--> FOAM Warning : Displacement (6.95769e-05 6.76092e-05 -3.14854e-05) at mesh point 3692 coord (-0.000232701 0.00431021 0.00984222) points through the surrounding patch faces
Smoothing displacement ...
Iteration 0
Iteration 10
Iteration 20
Iteration 30
Iteration 40
Iteration 50
Iteration 60
Iteration 70
Iteration 80
Iteration 90
Iteration 100
Iteration 110
Iteration 120
Iteration 130
Iteration 140
Iteration 150
Iteration 160
Iteration 170
Iteration 180
Iteration 190
Iteration 200
Iteration 210
Iteration 220
Iteration 230
Iteration 240
Iteration 250
Iteration 260
Iteration 270
Iteration 280
Iteration 290
Displacement smoothed in = 4.44 s


Moving mesh ...

Iteration 0
Moving mesh using displacement scaling : min:1  max:1
Checking faces in error :
    non-orthogonality > 50  degrees                        : 0
    faces with face pyramid volume < 1e-13                 : 0
    faces with face-decomposition tet quality < 1e-15      : 0
    faces with concavity > 80  degrees                     : 0
    faces with skewness > 4   (internal) or 20  (boundary) : 0
    faces with interpolation weights (0..1)  < 0.05        : 0
    faces with volume ratio of neighbour cells < 0.01      : 0
    faces with face twist < 0.02                           : 0
    faces on cells with determinant < 0.001                : 0
Successfully moved mesh
Moved mesh in = 0.97 s



Morph iteration 8
-----------------
Calculating patchDisplacement as distance to nearest surface point ...
Wanted displacement : average:2.17327e-05 min:9.55538e-09 max:0.000692208
Calculated surface displacement in = 0.03 s


Detecting near surfaces ...
Overriding nearest with intersection of close gaps at 0 out of 33050 points.
Overriding displacement on features :
   implicit features    : false
   explicit features    : true
   multi-patch features : false

Detected 0 baffle edges out of 65850 edges.
Initially selected 1424 points out of 33050 for reverse attraction.
Selected 4224 points out of 33050 for reverse attraction.
Stringing feature edges : changed 0 points
Attraction:
     linear   : max:(3.46945e-18 -2.77556e-17 -0.000692208) avg:(-1.36476e-06 1.67061e-10 -1.5984e-06)
     feature  : max:(-3.41673e-05 0 0.000602821) avg:(4.23835e-07 -4.25932e-11 1.33252e-07)
Feature analysis : total master points:33050 attraction to :
    feature point   : 16
    feature edge    : 1408
    nearest surface : 0
    rest            : 31626

--> FOAM Warning : Displacement (0.000102088 3.49438e-05 -1.29359e-05) at mesh point 3692 coord (-0.000163124 0.00437782 0.00981074) points through the surrounding patch faces
Smoothing displacement ...
Iteration 0
Iteration 10
Iteration 20
Iteration 30
Iteration 40
Iteration 50
Iteration 60
Iteration 70
Iteration 80
Iteration 90
Iteration 100
Iteration 110
Iteration 120
Iteration 130
Iteration 140
Iteration 150
Iteration 160
Iteration 170
Iteration 180
Iteration 190
Iteration 200
Iteration 210
Iteration 220
Iteration 230
Iteration 240
Iteration 250
Iteration 260
Iteration 270
Iteration 280
Iteration 290
Displacement smoothed in = 4.12 s


Moving mesh ...

Iteration 0
Moving mesh using displacement scaling : min:1  max:1
Checking faces in error :
    non-orthogonality > 50  degrees                        : 0
    faces with face pyramid volume < 1e-13                 : 0
    faces with face-decomposition tet quality < 1e-15      : 0
    faces with concavity > 80  degrees                     : 0
    faces with skewness > 4   (internal) or 20  (boundary) : 0
    faces with interpolation weights (0..1)  < 0.05        : 0
    faces with volume ratio of neighbour cells < 0.01      : 0
    faces with face twist < 0.02                           : 0
    faces on cells with determinant < 0.001                : 0
Successfully moved mesh
Moved mesh in = 0.94 s



Morph iteration 9
-----------------
Calculating patchDisplacement as distance to nearest surface point ...
Wanted displacement : average:9.7357e-06 min:1.87136e-10 max:0.000302501
Calculated surface displacement in = 0.03 s


Detecting near surfaces ...
Overriding nearest with intersection of close gaps at 0 out of 33050 points.
Overriding displacement on features :
   implicit features    : false
   explicit features    : true
   multi-patch features : false

Detected 0 baffle edges out of 65850 edges.
Initially selected 1424 points out of 33050 for reverse attraction.
Selected 4224 points out of 33050 for reverse attraction.
Stringing feature edges : changed 0 points
Attraction:
     linear   : max:(0 -2.77556e-17 -0.000302501) avg:(-6.58779e-07 1.83979e-10 -5.39356e-07)
     feature  : max:(3.41673e-06 0 0.000114536) avg:(8.28176e-08 -2.10749e-11 2.72785e-08)
Feature analysis : total master points:33050 attraction to :
    feature point   : 16
    feature edge    : 1408
    nearest surface : 0
    rest            : 31626

--> FOAM Warning : Displacement (6.10366e-05 -8.67362e-19 0) at mesh point 3692 coord (-6.10366e-05 0.00441276 0.0097978) points through the surrounding patch faces
Smoothing displacement ...
Iteration 0
Iteration 10
Iteration 20
Iteration 30
Iteration 40
Iteration 50
Iteration 60
Iteration 70
Iteration 80
Iteration 90
Iteration 100
Iteration 110
Iteration 120
Iteration 130
Iteration 140
Iteration 150
Iteration 160
Iteration 170
Iteration 180
Iteration 190
Iteration 200
Iteration 210
Iteration 220
Iteration 230
Iteration 240
Iteration 250
Iteration 260
Iteration 270
Iteration 280
Iteration 290
Displacement smoothed in = 3.82 s


Moving mesh ...

Iteration 0
Moving mesh using displacement scaling : min:1  max:1
Checking faces in error :
    non-orthogonality > 50  degrees                        : 0
    faces with face pyramid volume < 1e-13                 : 0
    faces with face-decomposition tet quality < 1e-15      : 0
    faces with concavity > 80  degrees                     : 0
    faces with skewness > 4   (internal) or 20  (boundary) : 0
    faces with interpolation weights (0..1)  < 0.05        : 0
    faces with volume ratio of neighbour cells < 0.01      : 0
    faces with face twist < 0.02                           : 0
    faces on cells with determinant < 0.001                : 0
Successfully moved mesh
Moved mesh in = 0.92 s


Repatching faces according to nearest surface ...
Repatched 0 faces in = 0.14 s


Edge intersection testing:
    Number of edges             : 304872
    Number of edges to retest   : 127316
    Number of intersected edges : 32802
Merging 0 sets of faces.

No faces merged ...

Merging all points on surface that
- are used by only two boundary faces and
- make an angle with a cosine of more than 0.996195.

No straight edges simplified and no points removed ...
Snapped mesh : cells:92074  faces:304872  points:121040
Cells per refinement level:
    0	30
    1	3330
    2	17658
    3	71056
Writing mesh to time constant
Wrote mesh in = 2.85 s.
Mesh snapped in = 57.4 s.
Checking final mesh ...
Checking faces in error :
    non-orthogonality > 50  degrees                        : 0
    faces with face pyramid volume < 1e-13                 : 0
    faces with face-decomposition tet quality < 1e-15      : 0
    faces with concavity > 80  degrees                     : 0
    faces with skewness > 4   (internal) or 20  (boundary) : 0
    faces with interpolation weights (0..1)  < 0.05        : 0
    faces with volume ratio of neighbour cells < 0.01      : 0
    faces with face twist < 0.02                           : 0
    faces on cells with determinant < 0.001                : 0
Finished meshing without any errors
Finished meshing in = 86.19 s.
End

